version 2
run Szenario_Hotel_Gabelbach-479-20180719-20:20:49-25992
attr configname Szenario_Hotel_Gabelbach
attr datetime 20180719-20:20:49
attr experiment Szenario_Hotel_Gabelbach
attr inifile omnetpp.ini
attr iterationvars "$replM=2, $biWeight=0.35, $replSearchM=1, $numUAVs=92"
attr iterationvarsf replM=2,biWeight=0.35,replSearchM=1,numUAVs=92-
attr measurement "$replM=2, $biWeight=0.35, $replSearchM=1, $numUAVs=92"
attr network OsgEarthNet
attr processid 25992
attr repetition 23
attr replication #23
attr resultdir results
attr runnumber 479
attr seedset 479
itervar biWeight 0.35
itervar numUAVs 92
itervar replM 2
itervar replSearchM 1
param *.osgEarthScene.scene "\"Szenario_Hotel_Gabelbach.earth\""
param *.playgroundLatitude 50.6830269
param *.playgroundLongitude 10.8538055
param *.playgroundWidth 3500m
param *.playgroundHeight 3500m
param *.cs[0].posX 3537m
param *.cs[0].posY 965m
param *.cs[0].posZ 538m
param *.cs[1].posX 312m
param *.cs[1].posY 1262m
param *.cs[1].posZ 539m
param *.cs[2].posX 2185m
param *.cs[2].posY 3026m
param *.cs[2].posZ 777m
param *.cs[3].posX 10m
param *.cs[3].posY 2200m
param *.cs[3].posZ 560m
param *.cs[4].posX 750m
param *.cs[4].posY 200m
param *.cs[4].posZ 540m
param *.cs[5].posX 2450m
param *.cs[5].posY 180m
param *.cs[5].posZ 524m
param *.cs[6].posX 3140m
param *.cs[6].posY 1790m
param *.cs[6].posZ 606m
param *.numCSs 3
param *.uav[*].replacementMethod 2
param *.uav[*].weightedSumWeight 0.35
param *.missionControl.replacementSearchMethod 1
param *.numUAVs 92
param *.*.timeStep 10s
param *.uav[*].commandPreviewCommandCount 20
param *.missionControl.missionFiles "\"missions\\\\Szenario_WB_Hotel_Gabelbach_Mission_Hotel.waypoints,missions\\\\Szenario_WB_Hotel_Gabelbach_Mission_Kickelhahn.waypoints,missions\\\\Szenario_WB_Hotel_Gabelbach_Mission_Ilmenau_Sportplatz.waypoints,missions\\\\Szenario_WB_Hotel_Gabelbach_Mission_Manebach_Mitte.waypoints,missions\\\\Szenario_WB_Hotel_Gabelbach_Mission_Manebach_Sued.waypoints,missions\\\\Szenario_WB_Hotel_Gabelbach_Hover_HoheSchlaufe.waypoints,missions\\\\Szenario_WB_Hotel_Gabelbach_Hover_Kickelhahn.waypoints,missions\\\\Szenario_WB_Hotel_Gabelbach_Hover_Gabelbachskopf.waypoints,missions\\\\Szenario_WB_Hotel_Gabelbach_Hover_Dachskopf.waypoints\""
param *.uav[0].startX 3537m
param *.uav[0].startY 965m
param *.uav[0].startZ 539m
param *.uav[1].startX 312m
param *.uav[1].startY 1262m
param *.uav[1].startZ 540m
param *.uav[2].startX 2185m
param *.uav[2].startY 3026m
param *.uav[2].startZ 778m
param *.uav[3].startX 3537m
param *.uav[3].startY 965m
param *.uav[3].startZ 539m
param *.uav[4].startX 312m
param *.uav[4].startY 1262m
param *.uav[4].startZ 540m
param *.uav[5].startX 2185m
param *.uav[5].startY 3026m
param *.uav[5].startZ 778m
param *.uav[6].startX 3537m
param *.uav[6].startY 965m
param *.uav[6].startZ 539m
param *.uav[7].startX 312m
param *.uav[7].startY 1262m
param *.uav[7].startZ 540m
param *.uav[8].startX 2185m
param *.uav[8].startY 3026m
param *.uav[8].startZ 778m
param *.uav[9].startX 3537m
param *.uav[9].startY 965m
param *.uav[9].startZ 539m
param *.uav[10].startX 3537m
param *.uav[10].startY 965m
param *.uav[10].startZ 539m
param *.uav[11].startX 312m
param *.uav[11].startY 1262m
param *.uav[11].startZ 540m
param *.uav[12].startX 2185m
param *.uav[12].startY 3026m
param *.uav[12].startZ 778m
param *.uav[13].startX 3537m
param *.uav[13].startY 965m
param *.uav[13].startZ 539m
param *.uav[14].startX 312m
param *.uav[14].startY 1262m
param *.uav[14].startZ 540m
param *.uav[15].startX 2185m
param *.uav[15].startY 3026m
param *.uav[15].startZ 778m
param *.uav[16].startX 3537m
param *.uav[16].startY 965m
param *.uav[16].startZ 539m
param *.uav[17].startX 312m
param *.uav[17].startY 1262m
param *.uav[17].startZ 540m
param *.uav[18].startX 2185m
param *.uav[18].startY 3026m
param *.uav[18].startZ 778m
param *.uav[19].startX 3537m
param *.uav[19].startY 965m
param *.uav[19].startZ 539m
param *.uav[20].startX 3537m
param *.uav[20].startY 965m
param *.uav[20].startZ 539m
param *.uav[21].startX 312m
param *.uav[21].startY 1262m
param *.uav[21].startZ 540m
param *.uav[22].startX 2185m
param *.uav[22].startY 3026m
param *.uav[22].startZ 778m
param *.uav[23].startX 3537m
param *.uav[23].startY 965m
param *.uav[23].startZ 539m
param *.uav[24].startX 312m
param *.uav[24].startY 1262m
param *.uav[24].startZ 540m
param *.uav[25].startX 2185m
param *.uav[25].startY 3026m
param *.uav[25].startZ 778m
param *.uav[26].startX 3537m
param *.uav[26].startY 965m
param *.uav[26].startZ 539m
param *.uav[27].startX 312m
param *.uav[27].startY 1262m
param *.uav[27].startZ 540m
param *.uav[28].startX 2185m
param *.uav[28].startY 3026m
param *.uav[28].startZ 778m
param *.uav[29].startX 3537m
param *.uav[29].startY 965m
param *.uav[29].startZ 539m
param *.uav[30].startX 3537m
param *.uav[30].startY 965m
param *.uav[30].startZ 539m
param *.uav[31].startX 312m
param *.uav[31].startY 1262m
param *.uav[31].startZ 540m
param *.uav[32].startX 2185m
param *.uav[32].startY 3026m
param *.uav[32].startZ 778m
param *.uav[33].startX 3537m
param *.uav[33].startY 965m
param *.uav[33].startZ 539m
param *.uav[34].startX 312m
param *.uav[34].startY 1262m
param *.uav[34].startZ 540m
param *.uav[35].startX 2185m
param *.uav[35].startY 3026m
param *.uav[35].startZ 778m
param *.uav[36].startX 3537m
param *.uav[36].startY 965m
param *.uav[36].startZ 539m
param *.uav[37].startX 312m
param *.uav[37].startY 1262m
param *.uav[37].startZ 540m
param *.uav[38].startX 2185m
param *.uav[38].startY 3026m
param *.uav[38].startZ 778m
param *.uav[39].startX 3537m
param *.uav[39].startY 965m
param *.uav[39].startZ 539m
param *.uav[40].startX 3537m
param *.uav[40].startY 965m
param *.uav[40].startZ 539m
param *.uav[41].startX 312m
param *.uav[41].startY 1262m
param *.uav[41].startZ 540m
param *.uav[42].startX 2185m
param *.uav[42].startY 3026m
param *.uav[42].startZ 778m
param *.uav[43].startX 3537m
param *.uav[43].startY 965m
param *.uav[43].startZ 539m
param *.uav[44].startX 312m
param *.uav[44].startY 1262m
param *.uav[44].startZ 540m
param *.uav[45].startX 2185m
param *.uav[45].startY 3026m
param *.uav[45].startZ 778m
param *.uav[46].startX 3537m
param *.uav[46].startY 965m
param *.uav[46].startZ 539m
param *.uav[47].startX 312m
param *.uav[47].startY 1262m
param *.uav[47].startZ 540m
param *.uav[48].startX 2185m
param *.uav[48].startY 3026m
param *.uav[48].startZ 778m
param *.uav[49].startX 3537m
param *.uav[49].startY 965m
param *.uav[49].startZ 539m
param *.uav[50].startX 3537m
param *.uav[50].startY 965m
param *.uav[50].startZ 539m
param *.uav[51].startX 312m
param *.uav[51].startY 1262m
param *.uav[51].startZ 540m
param *.uav[52].startX 2185m
param *.uav[52].startY 3026m
param *.uav[52].startZ 778m
param *.uav[53].startX 3537m
param *.uav[53].startY 965m
param *.uav[53].startZ 539m
param *.uav[54].startX 312m
param *.uav[54].startY 1262m
param *.uav[54].startZ 540m
param *.uav[55].startX 2185m
param *.uav[55].startY 3026m
param *.uav[55].startZ 778m
param *.uav[56].startX 3537m
param *.uav[56].startY 965m
param *.uav[56].startZ 539m
param *.uav[57].startX 312m
param *.uav[57].startY 1262m
param *.uav[57].startZ 540m
param *.uav[58].startX 2185m
param *.uav[58].startY 3026m
param *.uav[58].startZ 778m
param *.uav[59].startX 3537m
param *.uav[59].startY 965m
param *.uav[59].startZ 539m
param *.uav[60].startX 3537m
param *.uav[60].startY 965m
param *.uav[60].startZ 539m
param *.uav[61].startX 312m
param *.uav[61].startY 1262m
param *.uav[61].startZ 540m
param *.uav[62].startX 2185m
param *.uav[62].startY 3026m
param *.uav[62].startZ 778m
param *.uav[63].startX 3537m
param *.uav[63].startY 965m
param *.uav[63].startZ 539m
param *.uav[64].startX 312m
param *.uav[64].startY 1262m
param *.uav[64].startZ 540m
param *.uav[65].startX 2185m
param *.uav[65].startY 3026m
param *.uav[65].startZ 778m
param *.uav[66].startX 3537m
param *.uav[66].startY 965m
param *.uav[66].startZ 539m
param *.uav[67].startX 312m
param *.uav[67].startY 1262m
param *.uav[67].startZ 540m
param *.uav[68].startX 2185m
param *.uav[68].startY 3026m
param *.uav[68].startZ 778m
param *.uav[69].startX 3537m
param *.uav[69].startY 965m
param *.uav[69].startZ 539m
param *.uav[70].startX 3537m
param *.uav[70].startY 965m
param *.uav[70].startZ 539m
param *.uav[71].startX 312m
param *.uav[71].startY 1262m
param *.uav[71].startZ 540m
param *.uav[72].startX 2185m
param *.uav[72].startY 3026m
param *.uav[72].startZ 778m
param *.uav[73].startX 3537m
param *.uav[73].startY 965m
param *.uav[73].startZ 539m
param *.uav[74].startX 312m
param *.uav[74].startY 1262m
param *.uav[74].startZ 540m
param *.uav[75].startX 2185m
param *.uav[75].startY 3026m
param *.uav[75].startZ 778m
param *.uav[76].startX 3537m
param *.uav[76].startY 965m
param *.uav[76].startZ 539m
param *.uav[77].startX 312m
param *.uav[77].startY 1262m
param *.uav[77].startZ 540m
param *.uav[78].startX 2185m
param *.uav[78].startY 3026m
param *.uav[78].startZ 778m
param *.uav[79].startX 3537m
param *.uav[79].startY 965m
param *.uav[79].startZ 539m
param *.uav[80].startX 3537m
param *.uav[80].startY 965m
param *.uav[80].startZ 539m
param *.uav[81].startX 312m
param *.uav[81].startY 1262m
param *.uav[81].startZ 540m
param *.uav[82].startX 2185m
param *.uav[82].startY 3026m
param *.uav[82].startZ 778m
param *.uav[83].startX 3537m
param *.uav[83].startY 965m
param *.uav[83].startZ 539m
param *.uav[84].startX 312m
param *.uav[84].startY 1262m
param *.uav[84].startZ 540m
param *.uav[85].startX 2185m
param *.uav[85].startY 3026m
param *.uav[85].startZ 778m
param *.uav[86].startX 3537m
param *.uav[86].startY 965m
param *.uav[86].startZ 539m
param *.uav[87].startX 312m
param *.uav[87].startY 1262m
param *.uav[87].startZ 540m
param *.uav[88].startX 2185m
param *.uav[88].startY 3026m
param *.uav[88].startZ 778m
param *.uav[89].startX 3537m
param *.uav[89].startY 965m
param *.uav[89].startZ 539m
param *.uav[90].startX 3537m
param *.uav[90].startY 965m
param *.uav[90].startZ 539m
param *.uav[91].startX 312m
param *.uav[91].startY 1262m
param *.uav[91].startZ 540m
param *.uav[92].startX 2185m
param *.uav[92].startY 3026m
param *.uav[92].startZ 778m
param *.uav[93].startX 3537m
param *.uav[93].startY 965m
param *.uav[93].startZ 539m
param *.uav[94].startX 312m
param *.uav[94].startY 1262m
param *.uav[94].startZ 540m
param *.uav[95].startX 2185m
param *.uav[95].startY 3026m
param *.uav[95].startZ 778m
param *.uav[96].startX 3537m
param *.uav[96].startY 965m
param *.uav[96].startZ 539m
param *.uav[97].startX 312m
param *.uav[97].startY 1262m
param *.uav[97].startZ 540m
param *.uav[98].startX 2185m
param *.uav[98].startY 3026m
param *.uav[98].startZ 778m
param *.uav[99].startX 3537m
param *.uav[99].startY 965m
param *.uav[99].startZ 539m
param *.osgEarthScene.scene "\"boston.earth\""
param *.playgroundLatitude 42.3558
param *.playgroundLongitude -71.0677
param *.playgroundWidth 400m
param *.playgroundHeight 200m
param *.channelController.connectionColor "\"#0000FF40\""
param *.channelController.showConnections false
param *.uav[*].modelURL "\"quadrocopter.small.obj.15.scale.0,0,90.rot\""
param *.uav[*].labelColor "\"#FF7C00CC\""
param *.uav[*].label2Color "\"#FF7C00EE\""
param *.uav[*].batteryCapacity 5200mAh
param *.uav[*].batteryRemaining uav[index].batteryCapacity
param *.uav[*].predictionQuantile 0.95
param *.uav[*].replacementMethod 2
param *.uav[*].weightedSumWeight 0.5
param *.cs[*].modelURL "\"chargingstation_v1.osgt.2.scale.0,0,0.rot.0,0,-15e-1.trans\""
param *.cs[*].spotsWaiting 999
param *.cs[*].spotsCharging 999
param *.cs[*].chargeEffectivenessPercentage 100
param *.cs[*].nonLinearPhaseStartPercentage 85
param *.cs[*].chargeCurrent 6.0A
param *.cs[*].prioritizeFastCharge true
param *.missionControl.replacementSearchMethod 0
param *.*.timeStep 9s

scalar OsgEarthNet.uav[0] utilizationSecMission 760.62515258028
scalar OsgEarthNet.uav[0] utilizationSecMaintenance 202.91610409653
scalar OsgEarthNet.uav[0] utilizationSecCharge 3340
scalar OsgEarthNet.uav[0] utilizationSecIdle 254896.45774332
scalar OsgEarthNet.uav[0] utilizationEnergyMission 3103.1748657227
scalar OsgEarthNet.uav[0] utilizationEnergyMaintenance 984.5472946167
scalar OsgEarthNet.uav[0] utilizationEnergyCharge 4253.8666992188
scalar OsgEarthNet.uav[0] utilizationEnergyOverdrawMission 0
scalar OsgEarthNet.uav[0] utilizationEnergyOverdrawMaintenance 0
scalar OsgEarthNet.uav[0] utilizationCountMissions 1
scalar OsgEarthNet.uav[0] utilizationCountManeuversMission 12
scalar OsgEarthNet.uav[0] utilizationCountManeuversMaintenance 2
scalar OsgEarthNet.uav[0] utilizationCountChargeState 1
scalar OsgEarthNet.uav[0] utilizationCountOverdrawnAfterMission 0
scalar OsgEarthNet.uav[0] utilizationCountIdleState 2
scalar OsgEarthNet.uav[0] utilizationFail 0
scalar OsgEarthNet.uav[0] simulationTime 259200
scalar OsgEarthNet.uav[1] utilizationSecMission 966.80453324185
scalar OsgEarthNet.uav[1] utilizationSecMaintenance 970.50535093476
scalar OsgEarthNet.uav[1] utilizationSecCharge 8260
scalar OsgEarthNet.uav[1] utilizationSecIdle 249002.68911582
scalar OsgEarthNet.uav[1] utilizationEnergyMission 4720.3058280945
scalar OsgEarthNet.uav[1] utilizationEnergyMaintenance 4600.7742767334
scalar OsgEarthNet.uav[1] utilizationEnergyCharge 9616.8259277344
scalar OsgEarthNet.uav[1] utilizationEnergyOverdrawMission 0
scalar OsgEarthNet.uav[1] utilizationEnergyOverdrawMaintenance 0
scalar OsgEarthNet.uav[1] utilizationCountMissions 3
scalar OsgEarthNet.uav[1] utilizationCountManeuversMission 33
scalar OsgEarthNet.uav[1] utilizationCountManeuversMaintenance 6
scalar OsgEarthNet.uav[1] utilizationCountChargeState 3
scalar OsgEarthNet.uav[1] utilizationCountOverdrawnAfterMission 0
scalar OsgEarthNet.uav[1] utilizationCountIdleState 4
scalar OsgEarthNet.uav[1] utilizationFail 0
scalar OsgEarthNet.uav[1] simulationTime 259200
scalar OsgEarthNet.uav[2] utilizationSecMission 39561.351359172
scalar OsgEarthNet.uav[2] utilizationSecMaintenance 17197.500387857
scalar OsgEarthNet.uav[2] utilizationSecCharge 196282.25087783
scalar OsgEarthNet.uav[2] utilizationSecIdle 6158.8963751435
scalar OsgEarthNet.uav[2] utilizationEnergyMission 190007.98987961
scalar OsgEarthNet.uav[2] utilizationEnergyMaintenance 79722.885704041
scalar OsgEarthNet.uav[2] utilizationEnergyCharge 266274.28979492
scalar OsgEarthNet.uav[2] utilizationEnergyOverdrawMission 0
scalar OsgEarthNet.uav[2] utilizationEnergyOverdrawMaintenance 0
scalar OsgEarthNet.uav[2] utilizationCountMissions 58
scalar OsgEarthNet.uav[2] utilizationCountManeuversMission 1078
scalar OsgEarthNet.uav[2] utilizationCountManeuversMaintenance 116
scalar OsgEarthNet.uav[2] utilizationCountChargeState 58
scalar OsgEarthNet.uav[2] utilizationCountOverdrawnAfterMission 0
scalar OsgEarthNet.uav[2] utilizationCountIdleState 29
scalar OsgEarthNet.uav[2] utilizationFail 0
scalar OsgEarthNet.uav[2] simulationTime 259200
scalar OsgEarthNet.uav[3] utilizationSecMission 13275.368334472
scalar OsgEarthNet.uav[3] utilizationSecMaintenance 8589.7145721126
scalar OsgEarthNet.uav[3] utilizationSecCharge 77972.916093415
scalar OsgEarthNet.uav[3] utilizationSecIdle 159362
scalar OsgEarthNet.uav[3] utilizationEnergyMission 66504.169883728
scalar OsgEarthNet.uav[3] utilizationEnergyMaintenance 40342.785301208
scalar OsgEarthNet.uav[3] utilizationEnergyCharge 100796.42297363
scalar OsgEarthNet.uav[3] utilizationEnergyOverdrawMission 0
scalar OsgEarthNet.uav[3] utilizationEnergyOverdrawMaintenance 0
scalar OsgEarthNet.uav[3] utilizationCountMissions 23
scalar OsgEarthNet.uav[3] utilizationCountManeuversMission 434
scalar OsgEarthNet.uav[3] utilizationCountManeuversMaintenance 46
scalar OsgEarthNet.uav[3] utilizationCountChargeState 23
scalar OsgEarthNet.uav[3] utilizationCountOverdrawnAfterMission 0
scalar OsgEarthNet.uav[3] utilizationCountIdleState 23
scalar OsgEarthNet.uav[3] utilizationFail 0
scalar OsgEarthNet.uav[3] simulationTime 259200
scalar OsgEarthNet.uav[4] utilizationSecMission 3739.2979296281
scalar OsgEarthNet.uav[4] utilizationSecMaintenance 2441.7159860267
scalar OsgEarthNet.uav[4] utilizationSecCharge 20822.558823122
scalar OsgEarthNet.uav[4] utilizationSecIdle 232196.42626122
scalar OsgEarthNet.uav[4] utilizationEnergyMission 18879.938434601
scalar OsgEarthNet.uav[4] utilizationEnergyMaintenance 11448.029956818
scalar OsgEarthNet.uav[4] utilizationEnergyCharge 26594.205566406
scalar OsgEarthNet.uav[4] utilizationEnergyOverdrawMission 0
scalar OsgEarthNet.uav[4] utilizationEnergyOverdrawMaintenance 0
scalar OsgEarthNet.uav[4] utilizationCountMissions 7
scalar OsgEarthNet.uav[4] utilizationCountManeuversMission 135
scalar OsgEarthNet.uav[4] utilizationCountManeuversMaintenance 14
scalar OsgEarthNet.uav[4] utilizationCountChargeState 7
scalar OsgEarthNet.uav[4] utilizationCountOverdrawnAfterMission 0
scalar OsgEarthNet.uav[4] utilizationCountIdleState 7
scalar OsgEarthNet.uav[4] utilizationFail 0
scalar OsgEarthNet.uav[4] simulationTime 259200
scalar OsgEarthNet.uav[5] utilizationSecMission 38615.654422635
scalar OsgEarthNet.uav[5] utilizationSecMaintenance 17403.455284608
scalar OsgEarthNet.uav[5] utilizationSecCharge 195178.88429276
scalar OsgEarthNet.uav[5] utilizationSecIdle 8002.005
scalar OsgEarthNet.uav[5] utilizationEnergyMission 186714.22660065
scalar OsgEarthNet.uav[5] utilizationEnergyMaintenance 81369.980823517
scalar OsgEarthNet.uav[5] utilizationEnergyCharge 264254.66253662
scalar OsgEarthNet.uav[5] utilizationEnergyOverdrawMission 0
scalar OsgEarthNet.uav[5] utilizationEnergyOverdrawMaintenance 0
scalar OsgEarthNet.uav[5] utilizationCountMissions 58
scalar OsgEarthNet.uav[5] utilizationCountManeuversMission 1128
scalar OsgEarthNet.uav[5] utilizationCountManeuversMaintenance 116
scalar OsgEarthNet.uav[5] utilizationCountChargeState 58
scalar OsgEarthNet.uav[5] utilizationCountOverdrawnAfterMission 0
scalar OsgEarthNet.uav[5] utilizationCountIdleState 26
scalar OsgEarthNet.uav[5] utilizationFail 0
scalar OsgEarthNet.uav[5] simulationTime 259200
scalar OsgEarthNet.uav[6] utilizationSecMission 13126.251525803
scalar OsgEarthNet.uav[6] utilizationSecMaintenance 7747.6093273651
scalar OsgEarthNet.uav[6] utilizationSecCharge 77000
scalar OsgEarthNet.uav[6] utilizationSecIdle 161326.13814683
scalar OsgEarthNet.uav[6] utilizationEnergyMission 61314.519329071
scalar OsgEarthNet.uav[6] utilizationEnergyMaintenance 36487.722309112
scalar OsgEarthNet.uav[6] utilizationEnergyCharge 99080.405273438
scalar OsgEarthNet.uav[6] utilizationEnergyOverdrawMission 0
scalar OsgEarthNet.uav[6] utilizationEnergyOverdrawMaintenance 0
scalar OsgEarthNet.uav[6] utilizationCountMissions 22
scalar OsgEarthNet.uav[6] utilizationCountManeuversMission 396
scalar OsgEarthNet.uav[6] utilizationCountManeuversMaintenance 44
scalar OsgEarthNet.uav[6] utilizationCountChargeState 22
scalar OsgEarthNet.uav[6] utilizationCountOverdrawnAfterMission 0
scalar OsgEarthNet.uav[6] utilizationCountIdleState 23
scalar OsgEarthNet.uav[6] utilizationFail 0
scalar OsgEarthNet.uav[6] simulationTime 259200
scalar OsgEarthNet.uav[7] utilizationSecMission 5042.9478315036
scalar OsgEarthNet.uav[7] utilizationSecMaintenance 3452.3476738088
scalar OsgEarthNet.uav[7] utilizationSecCharge 28588.273233464
scalar OsgEarthNet.uav[7] utilizationSecIdle 222116.43026122
scalar OsgEarthNet.uav[7] utilizationEnergyMission 24764.333454132
scalar OsgEarthNet.uav[7] utilizationEnergyMaintenance 16221.808300018
scalar OsgEarthNet.uav[7] utilizationEnergyCharge 37023.338256836
scalar OsgEarthNet.uav[7] utilizationEnergyOverdrawMission 0
scalar OsgEarthNet.uav[7] utilizationEnergyOverdrawMaintenance 0
scalar OsgEarthNet.uav[7] utilizationCountMissions 9
scalar OsgEarthNet.uav[7] utilizationCountManeuversMission 230
scalar OsgEarthNet.uav[7] utilizationCountManeuversMaintenance 18
scalar OsgEarthNet.uav[7] utilizationCountChargeState 9
scalar OsgEarthNet.uav[7] utilizationCountOverdrawnAfterMission 0
scalar OsgEarthNet.uav[7] utilizationCountIdleState 9
scalar OsgEarthNet.uav[7] utilizationFail 0
scalar OsgEarthNet.uav[7] simulationTime 259200
scalar OsgEarthNet.uav[8] utilizationSecMission 40322.82753829
scalar OsgEarthNet.uav[8] utilizationSecMaintenance 15902.305345763
scalar OsgEarthNet.uav[8] utilizationSecCharge 193352.86211595
scalar OsgEarthNet.uav[8] utilizationSecIdle 9622.004
scalar OsgEarthNet.uav[8] utilizationEnergyMission 191369.42404938
scalar OsgEarthNet.uav[8] utilizationEnergyMaintenance 73021.470439911
scalar OsgEarthNet.uav[8] utilizationEnergyCharge 260088.65530396
scalar OsgEarthNet.uav[8] utilizationEnergyOverdrawMission 0
scalar OsgEarthNet.uav[8] utilizationEnergyOverdrawMaintenance 0
scalar OsgEarthNet.uav[8] utilizationCountMissions 57
scalar OsgEarthNet.uav[8] utilizationCountManeuversMission 1090
scalar OsgEarthNet.uav[8] utilizationCountManeuversMaintenance 114
scalar OsgEarthNet.uav[8] utilizationCountChargeState 57
scalar OsgEarthNet.uav[8] utilizationCountOverdrawnAfterMission 0
scalar OsgEarthNet.uav[8] utilizationCountIdleState 36
scalar OsgEarthNet.uav[8] utilizationFail 0
scalar OsgEarthNet.uav[8] simulationTime 259200
scalar OsgEarthNet.uav[9] utilizationSecMission 9513.4928767311
scalar OsgEarthNet.uav[9] utilizationSecMaintenance 6211.0554718517
scalar OsgEarthNet.uav[9] utilizationSecCharge 59680
scalar OsgEarthNet.uav[9] utilizationSecIdle 183795.45065142
scalar OsgEarthNet.uav[9] utilizationEnergyMission 47081.707378387
scalar OsgEarthNet.uav[9] utilizationEnergyMaintenance 29689.103813171
scalar OsgEarthNet.uav[9] utilizationEnergyCharge 76707.97265625
scalar OsgEarthNet.uav[9] utilizationEnergyOverdrawMission 0
scalar OsgEarthNet.uav[9] utilizationEnergyOverdrawMaintenance 0
scalar OsgEarthNet.uav[9] utilizationCountMissions 17
scalar OsgEarthNet.uav[9] utilizationCountManeuversMission 324
scalar OsgEarthNet.uav[9] utilizationCountManeuversMaintenance 34
scalar OsgEarthNet.uav[9] utilizationCountChargeState 17
scalar OsgEarthNet.uav[9] utilizationCountOverdrawnAfterMission 0
scalar OsgEarthNet.uav[9] utilizationCountIdleState 18
scalar OsgEarthNet.uav[9] utilizationFail 0
scalar OsgEarthNet.uav[9] simulationTime 259200
scalar OsgEarthNet.uav[10] utilizationSecMission 13005.001220642
scalar OsgEarthNet.uav[10] utilizationSecMaintenance 8528.7974437033
scalar OsgEarthNet.uav[10] utilizationSecCharge 80980
scalar OsgEarthNet.uav[10] utilizationSecIdle 156686.20033565
scalar OsgEarthNet.uav[10] utilizationEnergyMission 63380.975780487
scalar OsgEarthNet.uav[10] utilizationEnergyMaintenance 40733.905456543
scalar OsgEarthNet.uav[10] utilizationEnergyCharge 104400.33300781
scalar OsgEarthNet.uav[10] utilizationEnergyOverdrawMission 0
scalar OsgEarthNet.uav[10] utilizationEnergyOverdrawMaintenance 0
scalar OsgEarthNet.uav[10] utilizationCountMissions 23
scalar OsgEarthNet.uav[10] utilizationCountManeuversMission 442
scalar OsgEarthNet.uav[10] utilizationCountManeuversMaintenance 46
scalar OsgEarthNet.uav[10] utilizationCountChargeState 23
scalar OsgEarthNet.uav[10] utilizationCountOverdrawnAfterMission 0
scalar OsgEarthNet.uav[10] utilizationCountIdleState 24
scalar OsgEarthNet.uav[10] utilizationFail 0
scalar OsgEarthNet.uav[10] simulationTime 259200
scalar OsgEarthNet.uav[11] utilizationSecMission 20940.057879233
scalar OsgEarthNet.uav[11] utilizationSecMaintenance 15061.889513103
scalar OsgEarthNet.uav[11] utilizationSecCharge 142340
scalar OsgEarthNet.uav[11] utilizationSecIdle 80858.051607665
scalar OsgEarthNet.uav[11] utilizationEnergyMission 103855.97478867
scalar OsgEarthNet.uav[11] utilizationEnergyMaintenance 70468.663654327
scalar OsgEarthNet.uav[11] utilizationEnergyCharge 175300.98022461
scalar OsgEarthNet.uav[11] utilizationEnergyOverdrawMission 0
scalar OsgEarthNet.uav[11] utilizationEnergyOverdrawMaintenance 0
scalar OsgEarthNet.uav[11] utilizationCountMissions 45
scalar OsgEarthNet.uav[11] utilizationCountManeuversMission 696
scalar OsgEarthNet.uav[11] utilizationCountManeuversMaintenance 90
scalar OsgEarthNet.uav[11] utilizationCountChargeState 45
scalar OsgEarthNet.uav[11] utilizationCountOverdrawnAfterMission 0
scalar OsgEarthNet.uav[11] utilizationCountIdleState 46
scalar OsgEarthNet.uav[11] utilizationFail 0
scalar OsgEarthNet.uav[11] simulationTime 259200
scalar OsgEarthNet.uav[12] utilizationSecMission 39264.659375028
scalar OsgEarthNet.uav[12] utilizationSecMaintenance 16326.203310639
scalar OsgEarthNet.uav[12] utilizationSecCharge 194637.13031433
scalar OsgEarthNet.uav[12] utilizationSecIdle 8972.006
scalar OsgEarthNet.uav[12] utilizationEnergyMission 189939.18017197
scalar OsgEarthNet.uav[12] utilizationEnergyMaintenance 74212.960609436
scalar OsgEarthNet.uav[12] utilizationEnergyCharge 262237.86669922
scalar OsgEarthNet.uav[12] utilizationEnergyOverdrawMission 0
scalar OsgEarthNet.uav[12] utilizationEnergyOverdrawMaintenance 0
scalar OsgEarthNet.uav[12] utilizationCountMissions 57
scalar OsgEarthNet.uav[12] utilizationCountManeuversMission 1172
scalar OsgEarthNet.uav[12] utilizationCountManeuversMaintenance 114
scalar OsgEarthNet.uav[12] utilizationCountChargeState 57
scalar OsgEarthNet.uav[12] utilizationCountOverdrawnAfterMission 0
scalar OsgEarthNet.uav[12] utilizationCountIdleState 29
scalar OsgEarthNet.uav[12] utilizationFail 0
scalar OsgEarthNet.uav[12] simulationTime 259200
scalar OsgEarthNet.uav[13] utilizationSecMission 13344.376068062
scalar OsgEarthNet.uav[13] utilizationSecMaintenance 9055.7400433282
scalar OsgEarthNet.uav[13] utilizationSecCharge 84270
scalar OsgEarthNet.uav[13] utilizationSecIdle 152529.88288861
scalar OsgEarthNet.uav[13] utilizationEnergyMission 65662.564971924
scalar OsgEarthNet.uav[13] utilizationEnergyMaintenance 43075.49149704
scalar OsgEarthNet.uav[13] utilizationEnergyCharge 108323.13525391
scalar OsgEarthNet.uav[13] utilizationEnergyOverdrawMission 0
scalar OsgEarthNet.uav[13] utilizationEnergyOverdrawMaintenance 0
scalar OsgEarthNet.uav[13] utilizationCountMissions 24
scalar OsgEarthNet.uav[13] utilizationCountManeuversMission 485
scalar OsgEarthNet.uav[13] utilizationCountManeuversMaintenance 48
scalar OsgEarthNet.uav[13] utilizationCountChargeState 24
scalar OsgEarthNet.uav[13] utilizationCountOverdrawnAfterMission 0
scalar OsgEarthNet.uav[13] utilizationCountIdleState 25
scalar OsgEarthNet.uav[13] utilizationFail 0
scalar OsgEarthNet.uav[13] simulationTime 259200
scalar OsgEarthNet.uav[14] utilizationSecMission 15045.111921852
scalar OsgEarthNet.uav[14] utilizationSecMaintenance 11178.535610213
scalar OsgEarthNet.uav[14] utilizationSecCharge 104150
scalar OsgEarthNet.uav[14] utilizationSecIdle 128826.35146794
scalar OsgEarthNet.uav[14] utilizationEnergyMission 74654.191928864
scalar OsgEarthNet.uav[14] utilizationEnergyMaintenance 52881.591209412
scalar OsgEarthNet.uav[14] utilizationEnergyCharge 127780.82958984
scalar OsgEarthNet.uav[14] utilizationEnergyOverdrawMission 0
scalar OsgEarthNet.uav[14] utilizationEnergyOverdrawMaintenance 0
scalar OsgEarthNet.uav[14] utilizationCountMissions 33
scalar OsgEarthNet.uav[14] utilizationCountManeuversMission 535
scalar OsgEarthNet.uav[14] utilizationCountManeuversMaintenance 66
scalar OsgEarthNet.uav[14] utilizationCountChargeState 33
scalar OsgEarthNet.uav[14] utilizationCountOverdrawnAfterMission 0
scalar OsgEarthNet.uav[14] utilizationCountIdleState 34
scalar OsgEarthNet.uav[14] utilizationFail 0
scalar OsgEarthNet.uav[14] simulationTime 259200
scalar OsgEarthNet.uav[15] utilizationSecMission 39259.28342802
scalar OsgEarthNet.uav[15] utilizationSecMaintenance 15920.251942958
scalar OsgEarthNet.uav[15] utilizationSecCharge 196210
scalar OsgEarthNet.uav[15] utilizationSecIdle 7810.4636290222
scalar OsgEarthNet.uav[15] utilizationEnergyMission 189149.77225876
scalar OsgEarthNet.uav[15] utilizationEnergyMaintenance 73577.679176331
scalar OsgEarthNet.uav[15] utilizationEnergyCharge 263854.3828125
scalar OsgEarthNet.uav[15] utilizationEnergyOverdrawMission 0
scalar OsgEarthNet.uav[15] utilizationEnergyOverdrawMaintenance 0
scalar OsgEarthNet.uav[15] utilizationCountMissions 57
scalar OsgEarthNet.uav[15] utilizationCountManeuversMission 1130
scalar OsgEarthNet.uav[15] utilizationCountManeuversMaintenance 114
scalar OsgEarthNet.uav[15] utilizationCountChargeState 57
scalar OsgEarthNet.uav[15] utilizationCountOverdrawnAfterMission 0
scalar OsgEarthNet.uav[15] utilizationCountIdleState 32
scalar OsgEarthNet.uav[15] utilizationFail 0
scalar OsgEarthNet.uav[15] simulationTime 259200
scalar OsgEarthNet.uav[16] utilizationSecMission 12955.884411973
scalar OsgEarthNet.uav[16] utilizationSecMaintenance 7871.3642018091
scalar OsgEarthNet.uav[16] utilizationSecCharge 76320.743386218
scalar OsgEarthNet.uav[16] utilizationSecIdle 162052.007
scalar OsgEarthNet.uav[16] utilizationEnergyMission 61720.626979828
scalar OsgEarthNet.uav[16] utilizationEnergyMaintenance 37205.434303284
scalar OsgEarthNet.uav[16] utilizationEnergyCharge 99213.543945312
scalar OsgEarthNet.uav[16] utilizationEnergyOverdrawMission 0
scalar OsgEarthNet.uav[16] utilizationEnergyOverdrawMaintenance 0
scalar OsgEarthNet.uav[16] utilizationCountMissions 22
scalar OsgEarthNet.uav[16] utilizationCountManeuversMission 409
scalar OsgEarthNet.uav[16] utilizationCountManeuversMaintenance 44
scalar OsgEarthNet.uav[16] utilizationCountChargeState 22
scalar OsgEarthNet.uav[16] utilizationCountOverdrawnAfterMission 0
scalar OsgEarthNet.uav[16] utilizationCountIdleState 22
scalar OsgEarthNet.uav[16] utilizationFail 0
scalar OsgEarthNet.uav[16] simulationTime 259200
scalar OsgEarthNet.uav[17] utilizationSecMission 18339.85107937
scalar OsgEarthNet.uav[17] utilizationSecMaintenance 12612.045744024
scalar OsgEarthNet.uav[17] utilizationSecCharge 120580
scalar OsgEarthNet.uav[17] utilizationSecIdle 107668.10217661
scalar OsgEarthNet.uav[17] utilizationEnergyMission 88669.271083832
scalar OsgEarthNet.uav[17] utilizationEnergyMaintenance 60266.232215881
scalar OsgEarthNet.uav[17] utilizationEnergyCharge 148511.17333984
scalar OsgEarthNet.uav[17] utilizationEnergyOverdrawMission 0
scalar OsgEarthNet.uav[17] utilizationEnergyOverdrawMaintenance 0
scalar OsgEarthNet.uav[17] utilizationCountMissions 38
scalar OsgEarthNet.uav[17] utilizationCountManeuversMission 589
scalar OsgEarthNet.uav[17] utilizationCountManeuversMaintenance 76
scalar OsgEarthNet.uav[17] utilizationCountChargeState 38
scalar OsgEarthNet.uav[17] utilizationCountOverdrawnAfterMission 0
scalar OsgEarthNet.uav[17] utilizationCountIdleState 39
scalar OsgEarthNet.uav[17] utilizationFail 0
scalar OsgEarthNet.uav[17] simulationTime 259200
scalar OsgEarthNet.uav[18] utilizationSecMission 39409.395563528
scalar OsgEarthNet.uav[18] utilizationSecMaintenance 16471.93774362
scalar OsgEarthNet.uav[18] utilizationSecCharge 195886.66569285
scalar OsgEarthNet.uav[18] utilizationSecIdle 7432
scalar OsgEarthNet.uav[18] utilizationEnergyMission 194131.11264038
scalar OsgEarthNet.uav[18] utilizationEnergyMaintenance 75997.615653992
scalar OsgEarthNet.uav[18] utilizationEnergyCharge 264079.38537598
scalar OsgEarthNet.uav[18] utilizationEnergyOverdrawMission 0
scalar OsgEarthNet.uav[18] utilizationEnergyOverdrawMaintenance 0
scalar OsgEarthNet.uav[18] utilizationCountMissions 58
scalar OsgEarthNet.uav[18] utilizationCountManeuversMission 1177
scalar OsgEarthNet.uav[18] utilizationCountManeuversMaintenance 116
scalar OsgEarthNet.uav[18] utilizationCountChargeState 58
scalar OsgEarthNet.uav[18] utilizationCountOverdrawnAfterMission 0
scalar OsgEarthNet.uav[18] utilizationCountIdleState 36
scalar OsgEarthNet.uav[18] utilizationFail 0
scalar OsgEarthNet.uav[18] simulationTime 259200
scalar OsgEarthNet.uav[19] utilizationSecMission 38220.810836849
scalar OsgEarthNet.uav[19] utilizationSecMaintenance 17107.875843854
scalar OsgEarthNet.uav[19] utilizationSecCharge 193030
scalar OsgEarthNet.uav[19] utilizationSecIdle 10841.312319297
scalar OsgEarthNet.uav[19] utilizationEnergyMission 184026.8623431
scalar OsgEarthNet.uav[19] utilizationEnergyMaintenance 78680.045280457
scalar OsgEarthNet.uav[19] utilizationEnergyCharge 261437.77636719
scalar OsgEarthNet.uav[19] utilizationEnergyOverdrawMission 0
scalar OsgEarthNet.uav[19] utilizationEnergyOverdrawMaintenance 0
scalar OsgEarthNet.uav[19] utilizationCountMissions 57
scalar OsgEarthNet.uav[19] utilizationCountManeuversMission 1294
scalar OsgEarthNet.uav[19] utilizationCountManeuversMaintenance 115
scalar OsgEarthNet.uav[19] utilizationCountChargeState 57
scalar OsgEarthNet.uav[19] utilizationCountOverdrawnAfterMission 0
scalar OsgEarthNet.uav[19] utilizationCountIdleState 29
scalar OsgEarthNet.uav[19] utilizationFail 0
scalar OsgEarthNet.uav[19] simulationTime 259200
scalar OsgEarthNet.uav[20] utilizationSecMission 12755.368334472
scalar OsgEarthNet.uav[20] utilizationSecMaintenance 7937.5482013248
scalar OsgEarthNet.uav[20] utilizationSecCharge 76750
scalar OsgEarthNet.uav[20] utilizationSecIdle 161757.0824642
scalar OsgEarthNet.uav[20] utilizationEnergyMission 60955.168270111
scalar OsgEarthNet.uav[20] utilizationEnergyMaintenance 37778.878028869
scalar OsgEarthNet.uav[20] utilizationEnergyCharge 98889.828613281
scalar OsgEarthNet.uav[20] utilizationEnergyOverdrawMission 0
scalar OsgEarthNet.uav[20] utilizationEnergyOverdrawMaintenance 0
scalar OsgEarthNet.uav[20] utilizationCountMissions 22
scalar OsgEarthNet.uav[20] utilizationCountManeuversMission 408
scalar OsgEarthNet.uav[20] utilizationCountManeuversMaintenance 44
scalar OsgEarthNet.uav[20] utilizationCountChargeState 22
scalar OsgEarthNet.uav[20] utilizationCountOverdrawnAfterMission 0
scalar OsgEarthNet.uav[20] utilizationCountIdleState 23
scalar OsgEarthNet.uav[20] utilizationFail 0
scalar OsgEarthNet.uav[20] simulationTime 259200
scalar OsgEarthNet.uav[21] utilizationSecMission 22018.942209135
scalar OsgEarthNet.uav[21] utilizationSecMaintenance 14611.44006789
scalar OsgEarthNet.uav[21] utilizationSecCharge 139457.61521625
scalar OsgEarthNet.uav[21] utilizationSecIdle 83112.001506722
scalar OsgEarthNet.uav[21] utilizationEnergyMission 107391.78235245
scalar OsgEarthNet.uav[21] utilizationEnergyMaintenance 69985.898025513
scalar OsgEarthNet.uav[21] utilizationEnergyCharge 175353.05786133
scalar OsgEarthNet.uav[21] utilizationEnergyOverdrawMission 0
scalar OsgEarthNet.uav[21] utilizationEnergyOverdrawMaintenance 0
scalar OsgEarthNet.uav[21] utilizationCountMissions 43
scalar OsgEarthNet.uav[21] utilizationCountManeuversMission 744
scalar OsgEarthNet.uav[21] utilizationCountManeuversMaintenance 86
scalar OsgEarthNet.uav[21] utilizationCountChargeState 43
scalar OsgEarthNet.uav[21] utilizationCountOverdrawnAfterMission 0
scalar OsgEarthNet.uav[21] utilizationCountIdleState 43
scalar OsgEarthNet.uav[21] utilizationFail 0
scalar OsgEarthNet.uav[21] simulationTime 259200
scalar OsgEarthNet.uav[22] utilizationSecMission 39139.653121176
scalar OsgEarthNet.uav[22] utilizationSecMaintenance 16191.780642398
scalar OsgEarthNet.uav[22] utilizationSecCharge 196283.10957981
scalar OsgEarthNet.uav[22] utilizationSecIdle 7585.4556566199
scalar OsgEarthNet.uav[22] utilizationEnergyMission 188201.13664246
scalar OsgEarthNet.uav[22] utilizationEnergyMaintenance 75262.472396851
scalar OsgEarthNet.uav[22] utilizationEnergyCharge 264949.55859375
scalar OsgEarthNet.uav[22] utilizationEnergyOverdrawMission 0
scalar OsgEarthNet.uav[22] utilizationEnergyOverdrawMaintenance 0
scalar OsgEarthNet.uav[22] utilizationCountMissions 57
scalar OsgEarthNet.uav[22] utilizationCountManeuversMission 1186
scalar OsgEarthNet.uav[22] utilizationCountManeuversMaintenance 114
scalar OsgEarthNet.uav[22] utilizationCountChargeState 57
scalar OsgEarthNet.uav[22] utilizationCountOverdrawnAfterMission 0
scalar OsgEarthNet.uav[22] utilizationCountIdleState 29
scalar OsgEarthNet.uav[22] utilizationFail 0
scalar OsgEarthNet.uav[22] simulationTime 259200
scalar OsgEarthNet.uav[23] utilizationSecMission 13597.134717134
scalar OsgEarthNet.uav[23] utilizationSecMaintenance 7198.1698449869
scalar OsgEarthNet.uav[23] utilizationSecCharge 77300
scalar OsgEarthNet.uav[23] utilizationSecIdle 161104.69443788
scalar OsgEarthNet.uav[23] utilizationEnergyMission 66250.13067627
scalar OsgEarthNet.uav[23] utilizationEnergyMaintenance 34228.663288116
scalar OsgEarthNet.uav[23] utilizationEnergyCharge 99256.952148438
scalar OsgEarthNet.uav[23] utilizationEnergyOverdrawMission 0
scalar OsgEarthNet.uav[23] utilizationEnergyOverdrawMaintenance 0
scalar OsgEarthNet.uav[23] utilizationCountMissions 22
scalar OsgEarthNet.uav[23] utilizationCountManeuversMission 389
scalar OsgEarthNet.uav[23] utilizationCountManeuversMaintenance 44
scalar OsgEarthNet.uav[23] utilizationCountChargeState 22
scalar OsgEarthNet.uav[23] utilizationCountOverdrawnAfterMission 0
scalar OsgEarthNet.uav[23] utilizationCountIdleState 23
scalar OsgEarthNet.uav[23] utilizationFail 0
scalar OsgEarthNet.uav[23] simulationTime 259200
scalar OsgEarthNet.uav[24] utilizationSecMission 17600.498026251
scalar OsgEarthNet.uav[24] utilizationSecMaintenance 12193.069712525
scalar OsgEarthNet.uav[24] utilizationSecCharge 115300
scalar OsgEarthNet.uav[24] utilizationSecIdle 114106.43126122
scalar OsgEarthNet.uav[24] utilizationEnergyMission 85872.882324403
scalar OsgEarthNet.uav[24] utilizationEnergyMaintenance 58107.174911499
scalar OsgEarthNet.uav[24] utilizationEnergyCharge 142730.36303711
scalar OsgEarthNet.uav[24] utilizationEnergyOverdrawMission 0
scalar OsgEarthNet.uav[24] utilizationEnergyOverdrawMaintenance 0
scalar OsgEarthNet.uav[24] utilizationCountMissions 36
scalar OsgEarthNet.uav[24] utilizationCountManeuversMission 558
scalar OsgEarthNet.uav[24] utilizationCountManeuversMaintenance 73
scalar OsgEarthNet.uav[24] utilizationCountChargeState 36
scalar OsgEarthNet.uav[24] utilizationCountOverdrawnAfterMission 0
scalar OsgEarthNet.uav[24] utilizationCountIdleState 37
scalar OsgEarthNet.uav[24] utilizationFail 0
scalar OsgEarthNet.uav[24] simulationTime 259200
scalar OsgEarthNet.uav[25] utilizationSecMission 38755.601686751
scalar OsgEarthNet.uav[25] utilizationSecMaintenance 17712.395313249
scalar OsgEarthNet.uav[25] utilizationSecCharge 196890
scalar OsgEarthNet.uav[25] utilizationSecIdle 5842.002
scalar OsgEarthNet.uav[25] utilizationEnergyMission 186015.37030754
scalar OsgEarthNet.uav[25] utilizationEnergyMaintenance 82011.275257111
scalar OsgEarthNet.uav[25] utilizationEnergyCharge 267820.84765625
scalar OsgEarthNet.uav[25] utilizationEnergyOverdrawMission 0
scalar OsgEarthNet.uav[25] utilizationEnergyOverdrawMaintenance 0
scalar OsgEarthNet.uav[25] utilizationCountMissions 58
scalar OsgEarthNet.uav[25] utilizationCountManeuversMission 1173
scalar OsgEarthNet.uav[25] utilizationCountManeuversMaintenance 117
scalar OsgEarthNet.uav[25] utilizationCountChargeState 58
scalar OsgEarthNet.uav[25] utilizationCountOverdrawnAfterMission 0
scalar OsgEarthNet.uav[25] utilizationCountIdleState 26
scalar OsgEarthNet.uav[25] utilizationFail 0
scalar OsgEarthNet.uav[25] simulationTime 259200
scalar OsgEarthNet.uav[26] utilizationSecMission 11453.492876731
scalar OsgEarthNet.uav[26] utilizationSecMaintenance 8078.118380677
scalar OsgEarthNet.uav[26] utilizationSecCharge 74120
scalar OsgEarthNet.uav[26] utilizationSecIdle 165548.38774259
scalar OsgEarthNet.uav[26] utilizationEnergyMission 56322.259666443
scalar OsgEarthNet.uav[26] utilizationEnergyMaintenance 38419.303585052
scalar OsgEarthNet.uav[26] utilizationEnergyCharge 95660.555175781
scalar OsgEarthNet.uav[26] utilizationEnergyOverdrawMission 0
scalar OsgEarthNet.uav[26] utilizationEnergyOverdrawMaintenance 0
scalar OsgEarthNet.uav[26] utilizationCountMissions 21
scalar OsgEarthNet.uav[26] utilizationCountManeuversMission 421
scalar OsgEarthNet.uav[26] utilizationCountManeuversMaintenance 42
scalar OsgEarthNet.uav[26] utilizationCountChargeState 21
scalar OsgEarthNet.uav[26] utilizationCountOverdrawnAfterMission 0
scalar OsgEarthNet.uav[26] utilizationCountIdleState 22
scalar OsgEarthNet.uav[26] utilizationFail 0
scalar OsgEarthNet.uav[26] simulationTime 259200
scalar OsgEarthNet.uav[27] utilizationSecMission 20408.280974155
scalar OsgEarthNet.uav[27] utilizationSecMaintenance 12969.085984427
scalar OsgEarthNet.uav[27] utilizationSecCharge 129116.20378019
scalar OsgEarthNet.uav[27] utilizationSecIdle 96706.428261223
scalar OsgEarthNet.uav[27] utilizationEnergyMission 100534.7632103
scalar OsgEarthNet.uav[27] utilizationEnergyMaintenance 62305.995094299
scalar OsgEarthNet.uav[27] utilizationEnergyCharge 164273.69995117
scalar OsgEarthNet.uav[27] utilizationEnergyOverdrawMission 0
scalar OsgEarthNet.uav[27] utilizationEnergyOverdrawMaintenance 0
scalar OsgEarthNet.uav[27] utilizationCountMissions 38
scalar OsgEarthNet.uav[27] utilizationCountManeuversMission 672
scalar OsgEarthNet.uav[27] utilizationCountManeuversMaintenance 76
scalar OsgEarthNet.uav[27] utilizationCountChargeState 38
scalar OsgEarthNet.uav[27] utilizationCountOverdrawnAfterMission 0
scalar OsgEarthNet.uav[27] utilizationCountIdleState 38
scalar OsgEarthNet.uav[27] utilizationFail 0
scalar OsgEarthNet.uav[27] simulationTime 259200
scalar OsgEarthNet.uav[28] utilizationSecMission 38570.071509101
scalar OsgEarthNet.uav[28] utilizationSecMaintenance 17067.39314745
scalar OsgEarthNet.uav[28] utilizationSecCharge 194210.52934345
scalar OsgEarthNet.uav[28] utilizationSecIdle 9352.005
scalar OsgEarthNet.uav[28] utilizationEnergyMission 188775.36086655
scalar OsgEarthNet.uav[28] utilizationEnergyMaintenance 78138.283317566
scalar OsgEarthNet.uav[28] utilizationEnergyCharge 262344.6472168
scalar OsgEarthNet.uav[28] utilizationEnergyOverdrawMission 0
scalar OsgEarthNet.uav[28] utilizationEnergyOverdrawMaintenance 0
scalar OsgEarthNet.uav[28] utilizationCountMissions 58
scalar OsgEarthNet.uav[28] utilizationCountManeuversMission 1157
scalar OsgEarthNet.uav[28] utilizationCountManeuversMaintenance 116
scalar OsgEarthNet.uav[28] utilizationCountChargeState 58
scalar OsgEarthNet.uav[28] utilizationCountOverdrawnAfterMission 0
scalar OsgEarthNet.uav[28] utilizationCountIdleState 31
scalar OsgEarthNet.uav[28] utilizationFail 0
scalar OsgEarthNet.uav[28] simulationTime 259200
scalar OsgEarthNet.uav[29] utilizationSecMission 15786.251525803
scalar OsgEarthNet.uav[29] utilizationSecMaintenance 10509.53568989
scalar OsgEarthNet.uav[29] utilizationSecCharge 98720
scalar OsgEarthNet.uav[29] utilizationSecIdle 134184.21178431
scalar OsgEarthNet.uav[29] utilizationEnergyMission 75839.241653442
scalar OsgEarthNet.uav[29] utilizationEnergyMaintenance 49900.950119018
scalar OsgEarthNet.uav[29] utilizationEnergyCharge 127157.91650391
scalar OsgEarthNet.uav[29] utilizationEnergyOverdrawMission 0
scalar OsgEarthNet.uav[29] utilizationEnergyOverdrawMaintenance 0
scalar OsgEarthNet.uav[29] utilizationCountMissions 28
scalar OsgEarthNet.uav[29] utilizationCountManeuversMission 529
scalar OsgEarthNet.uav[29] utilizationCountManeuversMaintenance 56
scalar OsgEarthNet.uav[29] utilizationCountChargeState 28
scalar OsgEarthNet.uav[29] utilizationCountOverdrawnAfterMission 0
scalar OsgEarthNet.uav[29] utilizationCountIdleState 29
scalar OsgEarthNet.uav[29] utilizationFail 0
scalar OsgEarthNet.uav[29] simulationTime 259200
scalar OsgEarthNet.uav[30] utilizationSecMission 14705.001220642
scalar OsgEarthNet.uav[30] utilizationSecMaintenance 9773.6939817409
scalar OsgEarthNet.uav[30] utilizationSecCharge 91190
scalar OsgEarthNet.uav[30] utilizationSecIdle 143531.30379762
scalar OsgEarthNet.uav[30] utilizationEnergyMission 72966.842224121
scalar OsgEarthNet.uav[30] utilizationEnergyMaintenance 46303.355918884
scalar OsgEarthNet.uav[30] utilizationEnergyCharge 117448.63818359
scalar OsgEarthNet.uav[30] utilizationEnergyOverdrawMission 0
scalar OsgEarthNet.uav[30] utilizationEnergyOverdrawMaintenance 0
scalar OsgEarthNet.uav[30] utilizationCountMissions 26
scalar OsgEarthNet.uav[30] utilizationCountManeuversMission 527
scalar OsgEarthNet.uav[30] utilizationCountManeuversMaintenance 52
scalar OsgEarthNet.uav[30] utilizationCountChargeState 26
scalar OsgEarthNet.uav[30] utilizationCountOverdrawnAfterMission 0
scalar OsgEarthNet.uav[30] utilizationCountIdleState 27
scalar OsgEarthNet.uav[30] utilizationFail 0
scalar OsgEarthNet.uav[30] simulationTime 259200
scalar OsgEarthNet.uav[31] utilizationSecMission 23009.891914762
scalar OsgEarthNet.uav[31] utilizationSecMaintenance 15656.188036116
scalar OsgEarthNet.uav[31] utilizationSecCharge 147890
scalar OsgEarthNet.uav[31] utilizationSecIdle 72643.919049122
scalar OsgEarthNet.uav[31] utilizationEnergyMission 114191.52165222
scalar OsgEarthNet.uav[31] utilizationEnergyMaintenance 73624.164382935
scalar OsgEarthNet.uav[31] utilizationEnergyCharge 186922.9050293
scalar OsgEarthNet.uav[31] utilizationEnergyOverdrawMission 0
scalar OsgEarthNet.uav[31] utilizationEnergyOverdrawMaintenance 0
scalar OsgEarthNet.uav[31] utilizationCountMissions 44
scalar OsgEarthNet.uav[31] utilizationCountManeuversMission 883
scalar OsgEarthNet.uav[31] utilizationCountManeuversMaintenance 88
scalar OsgEarthNet.uav[31] utilizationCountChargeState 44
scalar OsgEarthNet.uav[31] utilizationCountOverdrawnAfterMission 0
scalar OsgEarthNet.uav[31] utilizationCountIdleState 45
scalar OsgEarthNet.uav[31] utilizationFail 0
scalar OsgEarthNet.uav[31] simulationTime 259200
scalar OsgEarthNet.uav[32] utilizationSecMission 39564.544306217
scalar OsgEarthNet.uav[32] utilizationSecMaintenance 16654.179310308
scalar OsgEarthNet.uav[32] utilizationSecCharge 197179.27538348
scalar OsgEarthNet.uav[32] utilizationSecIdle 5802
scalar OsgEarthNet.uav[32] utilizationEnergyMission 191157.98954541
scalar OsgEarthNet.uav[32] utilizationEnergyMaintenance 76359.989341736
scalar OsgEarthNet.uav[32] utilizationEnergyCharge 265212.27294922
scalar OsgEarthNet.uav[32] utilizationEnergyOverdrawMission 0
scalar OsgEarthNet.uav[32] utilizationEnergyOverdrawMaintenance 0
scalar OsgEarthNet.uav[32] utilizationCountMissions 58
scalar OsgEarthNet.uav[32] utilizationCountManeuversMission 1132
scalar OsgEarthNet.uav[32] utilizationCountManeuversMaintenance 115
scalar OsgEarthNet.uav[32] utilizationCountChargeState 58
scalar OsgEarthNet.uav[32] utilizationCountOverdrawnAfterMission 0
scalar OsgEarthNet.uav[32] utilizationCountIdleState 35
scalar OsgEarthNet.uav[32] utilizationFail 0
scalar OsgEarthNet.uav[32] simulationTime 259200
scalar OsgEarthNet.uav[33] utilizationSecMission 14477.134717134
scalar OsgEarthNet.uav[33] utilizationSecMaintenance 8345.1039440509
scalar OsgEarthNet.uav[33] utilizationSecCharge 84340
scalar OsgEarthNet.uav[33] utilizationSecIdle 152037.76033882
scalar OsgEarthNet.uav[33] utilizationEnergyMission 68060.764770508
scalar OsgEarthNet.uav[33] utilizationEnergyMaintenance 39767.540222168
scalar OsgEarthNet.uav[33] utilizationEnergyCharge 108238.26708984
scalar OsgEarthNet.uav[33] utilizationEnergyOverdrawMission 0
scalar OsgEarthNet.uav[33] utilizationEnergyOverdrawMaintenance 0
scalar OsgEarthNet.uav[33] utilizationCountMissions 24
scalar OsgEarthNet.uav[33] utilizationCountManeuversMission 433
scalar OsgEarthNet.uav[33] utilizationCountManeuversMaintenance 48
scalar OsgEarthNet.uav[33] utilizationCountChargeState 24
scalar OsgEarthNet.uav[33] utilizationCountOverdrawnAfterMission 0
scalar OsgEarthNet.uav[33] utilizationCountIdleState 25
scalar OsgEarthNet.uav[33] utilizationFail 0
scalar OsgEarthNet.uav[33] simulationTime 259200
scalar OsgEarthNet.uav[34] utilizationSecMission 22082.784489937
scalar OsgEarthNet.uav[34] utilizationSecMaintenance 17783.562790743
scalar OsgEarthNet.uav[34] utilizationSecCharge 158449.0398298
scalar OsgEarthNet.uav[34] utilizationSecIdle 60884.611889516
scalar OsgEarthNet.uav[34] utilizationEnergyMission 110167.38215637
scalar OsgEarthNet.uav[34] utilizationEnergyMaintenance 85180.509151459
scalar OsgEarthNet.uav[34] utilizationEnergyCharge 193038.73925781
scalar OsgEarthNet.uav[34] utilizationEnergyOverdrawMission 0
scalar OsgEarthNet.uav[34] utilizationEnergyOverdrawMaintenance 0
scalar OsgEarthNet.uav[34] utilizationCountMissions 52
scalar OsgEarthNet.uav[34] utilizationCountManeuversMission 840
scalar OsgEarthNet.uav[34] utilizationCountManeuversMaintenance 104
scalar OsgEarthNet.uav[34] utilizationCountChargeState 52
scalar OsgEarthNet.uav[34] utilizationCountOverdrawnAfterMission 0
scalar OsgEarthNet.uav[34] utilizationCountIdleState 52
scalar OsgEarthNet.uav[34] utilizationFail 0
scalar OsgEarthNet.uav[34] simulationTime 259200
scalar OsgEarthNet.uav[35] utilizationSecMission 39001.526424226
scalar OsgEarthNet.uav[35] utilizationSecMaintenance 17125.942969222
scalar OsgEarthNet.uav[35] utilizationSecCharge 196763.10425926
scalar OsgEarthNet.uav[35] utilizationSecIdle 6309.4253472904
scalar OsgEarthNet.uav[35] utilizationEnergyMission 189254.84344101
scalar OsgEarthNet.uav[35] utilizationEnergyMaintenance 78774.026191711
scalar OsgEarthNet.uav[35] utilizationEnergyCharge 266742.04003906
scalar OsgEarthNet.uav[35] utilizationEnergyOverdrawMission 0
scalar OsgEarthNet.uav[35] utilizationEnergyOverdrawMaintenance 0
scalar OsgEarthNet.uav[35] utilizationCountMissions 58
scalar OsgEarthNet.uav[35] utilizationCountManeuversMission 1098
scalar OsgEarthNet.uav[35] utilizationCountManeuversMaintenance 116
scalar OsgEarthNet.uav[35] utilizationCountChargeState 58
scalar OsgEarthNet.uav[35] utilizationCountOverdrawnAfterMission 0
scalar OsgEarthNet.uav[35] utilizationCountIdleState 30
scalar OsgEarthNet.uav[35] utilizationFail 0
scalar OsgEarthNet.uav[35] simulationTime 259200
scalar OsgEarthNet.uav[36] utilizationSecMission 13284.376068062
scalar OsgEarthNet.uav[36] utilizationSecMaintenance 9230.4746872663
scalar OsgEarthNet.uav[36] utilizationSecCharge 84730
scalar OsgEarthNet.uav[36] utilizationSecIdle 151955.14824467
scalar OsgEarthNet.uav[36] utilizationEnergyMission 65617.000495911
scalar OsgEarthNet.uav[36] utilizationEnergyMaintenance 43663.100322723
scalar OsgEarthNet.uav[36] utilizationEnergyCharge 108967.02685547
scalar OsgEarthNet.uav[36] utilizationEnergyOverdrawMission 0
scalar OsgEarthNet.uav[36] utilizationEnergyOverdrawMaintenance 0
scalar OsgEarthNet.uav[36] utilizationCountMissions 24
scalar OsgEarthNet.uav[36] utilizationCountManeuversMission 482
scalar OsgEarthNet.uav[36] utilizationCountManeuversMaintenance 48
scalar OsgEarthNet.uav[36] utilizationCountChargeState 24
scalar OsgEarthNet.uav[36] utilizationCountOverdrawnAfterMission 0
scalar OsgEarthNet.uav[36] utilizationCountIdleState 25
scalar OsgEarthNet.uav[36] utilizationFail 0
scalar OsgEarthNet.uav[36] simulationTime 259200
scalar OsgEarthNet.uav[37] utilizationSecMission 25657.045981376
scalar OsgEarthNet.uav[37] utilizationSecMaintenance 16630.953018624
scalar OsgEarthNet.uav[37] utilizationSecCharge 158310
scalar OsgEarthNet.uav[37] utilizationSecIdle 58602
scalar OsgEarthNet.uav[37] utilizationEnergyMission 123153.12055969
scalar OsgEarthNet.uav[37] utilizationEnergyMaintenance 78467.122874492
scalar OsgEarthNet.uav[37] utilizationEnergyCharge 198423.15356445
scalar OsgEarthNet.uav[37] utilizationEnergyOverdrawMission 0
scalar OsgEarthNet.uav[37] utilizationEnergyOverdrawMaintenance 0
scalar OsgEarthNet.uav[37] utilizationCountMissions 49
scalar OsgEarthNet.uav[37] utilizationCountManeuversMission 828
scalar OsgEarthNet.uav[37] utilizationCountManeuversMaintenance 97
scalar OsgEarthNet.uav[37] utilizationCountChargeState 48
scalar OsgEarthNet.uav[37] utilizationCountOverdrawnAfterMission 0
scalar OsgEarthNet.uav[37] utilizationCountIdleState 49
scalar OsgEarthNet.uav[37] utilizationFail 0
scalar OsgEarthNet.uav[37] simulationTime 259200
scalar OsgEarthNet.uav[38] utilizationSecMission 38612.914677472
scalar OsgEarthNet.uav[38] utilizationSecMaintenance 17155.819779773
scalar OsgEarthNet.uav[38] utilizationSecCharge 197124.91432414
scalar OsgEarthNet.uav[38] utilizationSecIdle 6306.3502186181
scalar OsgEarthNet.uav[38] utilizationEnergyMission 187447.05609131
scalar OsgEarthNet.uav[38] utilizationEnergyMaintenance 78531.664787293
scalar OsgEarthNet.uav[38] utilizationEnergyCharge 269001.19775391
scalar OsgEarthNet.uav[38] utilizationEnergyOverdrawMission 0
scalar OsgEarthNet.uav[38] utilizationEnergyOverdrawMaintenance 0
scalar OsgEarthNet.uav[38] utilizationCountMissions 58
scalar OsgEarthNet.uav[38] utilizationCountManeuversMission 1201
scalar OsgEarthNet.uav[38] utilizationCountManeuversMaintenance 116
scalar OsgEarthNet.uav[38] utilizationCountChargeState 58
scalar OsgEarthNet.uav[38] utilizationCountOverdrawnAfterMission 0
scalar OsgEarthNet.uav[38] utilizationCountIdleState 21
scalar OsgEarthNet.uav[38] utilizationFail 0
scalar OsgEarthNet.uav[38] simulationTime 259200
scalar OsgEarthNet.uav[39] utilizationSecMission 16328.126983544
scalar OsgEarthNet.uav[39] utilizationSecMaintenance 9299.3674129002
scalar OsgEarthNet.uav[39] utilizationSecCharge 94560.498603556
scalar OsgEarthNet.uav[39] utilizationSecIdle 139012.006
scalar OsgEarthNet.uav[39] utilizationEnergyMission 77850.740531921
scalar OsgEarthNet.uav[39] utilizationEnergyMaintenance 44130.822422027
scalar OsgEarthNet.uav[39] utilizationEnergyCharge 121977.13378906
scalar OsgEarthNet.uav[39] utilizationEnergyOverdrawMission 0
scalar OsgEarthNet.uav[39] utilizationEnergyOverdrawMaintenance 0
scalar OsgEarthNet.uav[39] utilizationCountMissions 27
scalar OsgEarthNet.uav[39] utilizationCountManeuversMission 478
scalar OsgEarthNet.uav[39] utilizationCountManeuversMaintenance 54
scalar OsgEarthNet.uav[39] utilizationCountChargeState 27
scalar OsgEarthNet.uav[39] utilizationCountOverdrawnAfterMission 0
scalar OsgEarthNet.uav[39] utilizationCountIdleState 27
scalar OsgEarthNet.uav[39] utilizationFail 0
scalar OsgEarthNet.uav[39] simulationTime 259200
scalar OsgEarthNet.uav[40] utilizationSecMission 12423.750915482
scalar OsgEarthNet.uav[40] utilizationSecMaintenance 9037.2884771299
scalar OsgEarthNet.uav[40] utilizationSecCharge 78430.558272298
scalar OsgEarthNet.uav[40] utilizationSecIdle 159308.40133509
scalar OsgEarthNet.uav[40] utilizationEnergyMission 63167.712184906
scalar OsgEarthNet.uav[40] utilizationEnergyMaintenance 43429.690368652
scalar OsgEarthNet.uav[40] utilizationEnergyCharge 101432.28601074
scalar OsgEarthNet.uav[40] utilizationEnergyOverdrawMission 0
scalar OsgEarthNet.uav[40] utilizationEnergyOverdrawMaintenance 0
scalar OsgEarthNet.uav[40] utilizationCountMissions 23
scalar OsgEarthNet.uav[40] utilizationCountManeuversMission 465
scalar OsgEarthNet.uav[40] utilizationCountManeuversMaintenance 46
scalar OsgEarthNet.uav[40] utilizationCountChargeState 23
scalar OsgEarthNet.uav[40] utilizationCountOverdrawnAfterMission 0
scalar OsgEarthNet.uav[40] utilizationCountIdleState 23
scalar OsgEarthNet.uav[40] utilizationFail 0
scalar OsgEarthNet.uav[40] simulationTime 259200
scalar OsgEarthNet.uav[41] utilizationSecMission 21720.057879233
scalar OsgEarthNet.uav[41] utilizationSecMaintenance 15447.377365085
scalar OsgEarthNet.uav[41] utilizationSecCharge 145980
scalar OsgEarthNet.uav[41] utilizationSecIdle 76052.563755683
scalar OsgEarthNet.uav[41] utilizationEnergyMission 106614.97859955
scalar OsgEarthNet.uav[41] utilizationEnergyMaintenance 73525.777301788
scalar OsgEarthNet.uav[41] utilizationEnergyCharge 180186.00146484
scalar OsgEarthNet.uav[41] utilizationEnergyOverdrawMission 0
scalar OsgEarthNet.uav[41] utilizationEnergyOverdrawMaintenance 0
scalar OsgEarthNet.uav[41] utilizationCountMissions 46
scalar OsgEarthNet.uav[41] utilizationCountManeuversMission 735
scalar OsgEarthNet.uav[41] utilizationCountManeuversMaintenance 92
scalar OsgEarthNet.uav[41] utilizationCountChargeState 46
scalar OsgEarthNet.uav[41] utilizationCountOverdrawnAfterMission 0
scalar OsgEarthNet.uav[41] utilizationCountIdleState 47
scalar OsgEarthNet.uav[41] utilizationFail 0
scalar OsgEarthNet.uav[41] simulationTime 259200
scalar OsgEarthNet.uav[42] utilizationSecMission 38629.481594707
scalar OsgEarthNet.uav[42] utilizationSecMaintenance 17028.818238884
scalar OsgEarthNet.uav[42] utilizationSecCharge 196680.24620448
scalar OsgEarthNet.uav[42] utilizationSecIdle 6861.4529619338
scalar OsgEarthNet.uav[42] utilizationEnergyMission 188475.49480438
scalar OsgEarthNet.uav[42] utilizationEnergyMaintenance 77776.35541153
scalar OsgEarthNet.uav[42] utilizationEnergyCharge 264601.26806641
scalar OsgEarthNet.uav[42] utilizationEnergyOverdrawMission 0
scalar OsgEarthNet.uav[42] utilizationEnergyOverdrawMaintenance 0
scalar OsgEarthNet.uav[42] utilizationCountMissions 58
scalar OsgEarthNet.uav[42] utilizationCountManeuversMission 1268
scalar OsgEarthNet.uav[42] utilizationCountManeuversMaintenance 116
scalar OsgEarthNet.uav[42] utilizationCountChargeState 58
scalar OsgEarthNet.uav[42] utilizationCountOverdrawnAfterMission 0
scalar OsgEarthNet.uav[42] utilizationCountIdleState 30
scalar OsgEarthNet.uav[42] utilizationFail 0
scalar OsgEarthNet.uav[42] simulationTime 259200
scalar OsgEarthNet.uav[43] utilizationSecMission 16265.626373223
scalar OsgEarthNet.uav[43] utilizationSecMaintenance 11046.478289515
scalar OsgEarthNet.uav[43] utilizationSecCharge 101930
scalar OsgEarthNet.uav[43] utilizationSecIdle 129957.89433726
scalar OsgEarthNet.uav[43] utilizationEnergyMission 80029.22662735
scalar OsgEarthNet.uav[43] utilizationEnergyMaintenance 51638.22101593
scalar OsgEarthNet.uav[43] utilizationEnergyCharge 131331.65722656
scalar OsgEarthNet.uav[43] utilizationEnergyOverdrawMission 0
scalar OsgEarthNet.uav[43] utilizationEnergyOverdrawMaintenance 0
scalar OsgEarthNet.uav[43] utilizationCountMissions 29
scalar OsgEarthNet.uav[43] utilizationCountManeuversMission 579
scalar OsgEarthNet.uav[43] utilizationCountManeuversMaintenance 58
scalar OsgEarthNet.uav[43] utilizationCountChargeState 29
scalar OsgEarthNet.uav[43] utilizationCountOverdrawnAfterMission 0
scalar OsgEarthNet.uav[43] utilizationCountIdleState 30
scalar OsgEarthNet.uav[43] utilizationFail 0
scalar OsgEarthNet.uav[43] simulationTime 259200
scalar OsgEarthNet.uav[44] utilizationSecMission 38379.449298793
scalar OsgEarthNet.uav[44] utilizationSecMaintenance 16827.655355188
scalar OsgEarthNet.uav[44] utilizationSecCharge 194116.66909664
scalar OsgEarthNet.uav[44] utilizationSecIdle 9876.2252493782
scalar OsgEarthNet.uav[44] utilizationEnergyMission 185958.55625916
scalar OsgEarthNet.uav[44] utilizationEnergyMaintenance 77704.204524994
scalar OsgEarthNet.uav[44] utilizationEnergyCharge 261629.296875
scalar OsgEarthNet.uav[44] utilizationEnergyOverdrawMission 0
scalar OsgEarthNet.uav[44] utilizationEnergyOverdrawMaintenance 0
scalar OsgEarthNet.uav[44] utilizationCountMissions 57
scalar OsgEarthNet.uav[44] utilizationCountManeuversMission 1204
scalar OsgEarthNet.uav[44] utilizationCountManeuversMaintenance 114
scalar OsgEarthNet.uav[44] utilizationCountChargeState 57
scalar OsgEarthNet.uav[44] utilizationCountOverdrawnAfterMission 0
scalar OsgEarthNet.uav[44] utilizationCountIdleState 29
scalar OsgEarthNet.uav[44] utilizationFail 0
scalar OsgEarthNet.uav[44] simulationTime 259200
scalar OsgEarthNet.uav[45] utilizationSecMission 38645.327175576
scalar OsgEarthNet.uav[45] utilizationSecMaintenance 17114.693248511
scalar OsgEarthNet.uav[45] utilizationSecCharge 197187.97657591
scalar OsgEarthNet.uav[45] utilizationSecIdle 6252.002
scalar OsgEarthNet.uav[45] utilizationEnergyMission 188878.95390701
scalar OsgEarthNet.uav[45] utilizationEnergyMaintenance 79582.069511414
scalar OsgEarthNet.uav[45] utilizationEnergyCharge 267918.86425781
scalar OsgEarthNet.uav[45] utilizationEnergyOverdrawMission 0
scalar OsgEarthNet.uav[45] utilizationEnergyOverdrawMaintenance 0
scalar OsgEarthNet.uav[45] utilizationCountMissions 58
scalar OsgEarthNet.uav[45] utilizationCountManeuversMission 1270
scalar OsgEarthNet.uav[45] utilizationCountManeuversMaintenance 116
scalar OsgEarthNet.uav[45] utilizationCountChargeState 58
scalar OsgEarthNet.uav[45] utilizationCountOverdrawnAfterMission 0
scalar OsgEarthNet.uav[45] utilizationCountIdleState 28
scalar OsgEarthNet.uav[45] utilizationFail 0
scalar OsgEarthNet.uav[45] simulationTime 259200
scalar OsgEarthNet.uav[46] utilizationSecMission 16126.876678383
scalar OsgEarthNet.uav[46] utilizationSecMaintenance 10167.922851207
scalar OsgEarthNet.uav[46] utilizationSecCharge 98080
scalar OsgEarthNet.uav[46] utilizationSecIdle 134825.19947041
scalar OsgEarthNet.uav[46] utilizationEnergyMission 77560.705184937
scalar OsgEarthNet.uav[46] utilizationEnergyMaintenance 48360.97517395
scalar OsgEarthNet.uav[46] utilizationEnergyCharge 126262.58007812
scalar OsgEarthNet.uav[46] utilizationEnergyOverdrawMission 0
scalar OsgEarthNet.uav[46] utilizationEnergyOverdrawMaintenance 0
scalar OsgEarthNet.uav[46] utilizationCountMissions 28
scalar OsgEarthNet.uav[46] utilizationCountManeuversMission 520
scalar OsgEarthNet.uav[46] utilizationCountManeuversMaintenance 56
scalar OsgEarthNet.uav[46] utilizationCountChargeState 28
scalar OsgEarthNet.uav[46] utilizationCountOverdrawnAfterMission 0
scalar OsgEarthNet.uav[46] utilizationCountIdleState 29
scalar OsgEarthNet.uav[46] utilizationFail 0
scalar OsgEarthNet.uav[46] simulationTime 259200
scalar OsgEarthNet.uav[47] utilizationSecMission 24692.344475756
scalar OsgEarthNet.uav[47] utilizationSecMaintenance 16861.76954548
scalar OsgEarthNet.uav[47] utilizationSecCharge 157903.88497876
scalar OsgEarthNet.uav[47] utilizationSecIdle 59742
scalar OsgEarthNet.uav[47] utilizationEnergyMission 118963.73693848
scalar OsgEarthNet.uav[47] utilizationEnergyMaintenance 79628.538311005
scalar OsgEarthNet.uav[47] utilizationEnergyCharge 197934.08618164
scalar OsgEarthNet.uav[47] utilizationEnergyOverdrawMission 0
scalar OsgEarthNet.uav[47] utilizationEnergyOverdrawMaintenance 0
scalar OsgEarthNet.uav[47] utilizationCountMissions 49
scalar OsgEarthNet.uav[47] utilizationCountManeuversMission 870
scalar OsgEarthNet.uav[47] utilizationCountManeuversMaintenance 98
scalar OsgEarthNet.uav[47] utilizationCountChargeState 49
scalar OsgEarthNet.uav[47] utilizationCountOverdrawnAfterMission 0
scalar OsgEarthNet.uav[47] utilizationCountIdleState 49
scalar OsgEarthNet.uav[47] utilizationFail 0
scalar OsgEarthNet.uav[47] simulationTime 259200
scalar OsgEarthNet.uav[48] utilizationSecMission 39355.946695233
scalar OsgEarthNet.uav[48] utilizationSecMaintenance 16412.048304767
scalar OsgEarthNet.uav[48] utilizationSecCharge 195920
scalar OsgEarthNet.uav[48] utilizationSecIdle 7512.004
scalar OsgEarthNet.uav[48] utilizationEnergyMission 192251.29892561
scalar OsgEarthNet.uav[48] utilizationEnergyMaintenance 75147.747173309
scalar OsgEarthNet.uav[48] utilizationEnergyCharge 264046.7421875
scalar OsgEarthNet.uav[48] utilizationEnergyOverdrawMission 0
scalar OsgEarthNet.uav[48] utilizationEnergyOverdrawMaintenance 0
scalar OsgEarthNet.uav[48] utilizationCountMissions 57
scalar OsgEarthNet.uav[48] utilizationCountManeuversMission 1210
scalar OsgEarthNet.uav[48] utilizationCountManeuversMaintenance 115
scalar OsgEarthNet.uav[48] utilizationCountChargeState 57
scalar OsgEarthNet.uav[48] utilizationCountOverdrawnAfterMission 0
scalar OsgEarthNet.uav[48] utilizationCountIdleState 24
scalar OsgEarthNet.uav[48] utilizationFail 0
scalar OsgEarthNet.uav[48] simulationTime 259200
scalar OsgEarthNet.uav[49] utilizationSecMission 16377.134717134
scalar OsgEarthNet.uav[49] utilizationSecMaintenance 10406.964137899
scalar OsgEarthNet.uav[49] utilizationSecCharge 99260
scalar OsgEarthNet.uav[49] utilizationSecIdle 133155.90014497
scalar OsgEarthNet.uav[49] utilizationEnergyMission 78790.222949982
scalar OsgEarthNet.uav[49] utilizationEnergyMaintenance 49834.010982513
scalar OsgEarthNet.uav[49] utilizationEnergyCharge 128110.83691406
scalar OsgEarthNet.uav[49] utilizationEnergyOverdrawMission 0
scalar OsgEarthNet.uav[49] utilizationEnergyOverdrawMaintenance 0
scalar OsgEarthNet.uav[49] utilizationCountMissions 28
scalar OsgEarthNet.uav[49] utilizationCountManeuversMission 528
scalar OsgEarthNet.uav[49] utilizationCountManeuversMaintenance 56
scalar OsgEarthNet.uav[49] utilizationCountChargeState 28
scalar OsgEarthNet.uav[49] utilizationCountOverdrawnAfterMission 0
scalar OsgEarthNet.uav[49] utilizationCountIdleState 29
scalar OsgEarthNet.uav[49] utilizationFail 0
scalar OsgEarthNet.uav[49] simulationTime 259200
scalar OsgEarthNet.uav[50] utilizationSecMission 14566.251525803
scalar OsgEarthNet.uav[50] utilizationSecMaintenance 8992.5058654027
scalar OsgEarthNet.uav[50] utilizationSecCharge 85709.232608794
scalar OsgEarthNet.uav[50] utilizationSecIdle 149932.009
scalar OsgEarthNet.uav[50] utilizationEnergyMission 70360.556461334
scalar OsgEarthNet.uav[50] utilizationEnergyMaintenance 42427.34128952
scalar OsgEarthNet.uav[50] utilizationEnergyCharge 111078.02929688
scalar OsgEarthNet.uav[50] utilizationEnergyOverdrawMission 0
scalar OsgEarthNet.uav[50] utilizationEnergyOverdrawMaintenance 0
scalar OsgEarthNet.uav[50] utilizationCountMissions 25
scalar OsgEarthNet.uav[50] utilizationCountManeuversMission 468
scalar OsgEarthNet.uav[50] utilizationCountManeuversMaintenance 50
scalar OsgEarthNet.uav[50] utilizationCountChargeState 25
scalar OsgEarthNet.uav[50] utilizationCountOverdrawnAfterMission 0
scalar OsgEarthNet.uav[50] utilizationCountIdleState 25
scalar OsgEarthNet.uav[50] utilizationFail 0
scalar OsgEarthNet.uav[50] simulationTime 259200
scalar OsgEarthNet.uav[51] utilizationSecMission 28403.66164417
scalar OsgEarthNet.uav[51] utilizationSecMaintenance 16024.271232896
scalar OsgEarthNet.uav[51] utilizationSecCharge 164285.63886171
scalar OsgEarthNet.uav[51] utilizationSecIdle 50486.427261223
scalar OsgEarthNet.uav[51] utilizationEnergyMission 137639.65106583
scalar OsgEarthNet.uav[51] utilizationEnergyMaintenance 75171.829135895
scalar OsgEarthNet.uav[51] utilizationEnergyCharge 208426.7510376
scalar OsgEarthNet.uav[51] utilizationEnergyOverdrawMission 0
scalar OsgEarthNet.uav[51] utilizationEnergyOverdrawMaintenance 0
scalar OsgEarthNet.uav[51] utilizationCountMissions 51
scalar OsgEarthNet.uav[51] utilizationCountManeuversMission 940
scalar OsgEarthNet.uav[51] utilizationCountManeuversMaintenance 102
scalar OsgEarthNet.uav[51] utilizationCountChargeState 51
scalar OsgEarthNet.uav[51] utilizationCountOverdrawnAfterMission 0
scalar OsgEarthNet.uav[51] utilizationCountIdleState 47
scalar OsgEarthNet.uav[51] utilizationFail 0
scalar OsgEarthNet.uav[51] simulationTime 259200
scalar OsgEarthNet.uav[52] utilizationSecMission 40353.22302314
scalar OsgEarthNet.uav[52] utilizationSecMaintenance 15860.418370066
scalar OsgEarthNet.uav[52] utilizationSecCharge 197101.85966562
scalar OsgEarthNet.uav[52] utilizationSecIdle 5884.4979411756
scalar OsgEarthNet.uav[52] utilizationEnergyMission 193495.52017975
scalar OsgEarthNet.uav[52] utilizationEnergyMaintenance 73592.415454865
scalar OsgEarthNet.uav[52] utilizationEnergyCharge 265757.16870117
scalar OsgEarthNet.uav[52] utilizationEnergyOverdrawMission 0
scalar OsgEarthNet.uav[52] utilizationEnergyOverdrawMaintenance 0
scalar OsgEarthNet.uav[52] utilizationCountMissions 58
scalar OsgEarthNet.uav[52] utilizationCountManeuversMission 1146
scalar OsgEarthNet.uav[52] utilizationCountManeuversMaintenance 116
scalar OsgEarthNet.uav[52] utilizationCountChargeState 58
scalar OsgEarthNet.uav[52] utilizationCountOverdrawnAfterMission 0
scalar OsgEarthNet.uav[52] utilizationCountIdleState 29
scalar OsgEarthNet.uav[52] utilizationFail 0
scalar OsgEarthNet.uav[52] simulationTime 259200
scalar OsgEarthNet.uav[53] utilizationSecMission 13886.876678383
scalar OsgEarthNet.uav[53] utilizationSecMaintenance 7853.3968949901
scalar OsgEarthNet.uav[53] utilizationSecCharge 81100
scalar OsgEarthNet.uav[53] utilizationSecIdle 156359.72542663
scalar OsgEarthNet.uav[53] utilizationEnergyMission 66995.198009491
scalar OsgEarthNet.uav[53] utilizationEnergyMaintenance 37080.973266601
scalar OsgEarthNet.uav[53] utilizationEnergyCharge 104523.40283203
scalar OsgEarthNet.uav[53] utilizationEnergyOverdrawMission 0
scalar OsgEarthNet.uav[53] utilizationEnergyOverdrawMaintenance 0
scalar OsgEarthNet.uav[53] utilizationCountMissions 23
scalar OsgEarthNet.uav[53] utilizationCountManeuversMission 408
scalar OsgEarthNet.uav[53] utilizationCountManeuversMaintenance 46
scalar OsgEarthNet.uav[53] utilizationCountChargeState 23
scalar OsgEarthNet.uav[53] utilizationCountOverdrawnAfterMission 0
scalar OsgEarthNet.uav[53] utilizationCountIdleState 24
scalar OsgEarthNet.uav[53] utilizationFail 0
scalar OsgEarthNet.uav[53] simulationTime 259200
scalar OsgEarthNet.uav[54] utilizationSecMission 22688.406103234
scalar OsgEarthNet.uav[54] utilizationSecMaintenance 15638.352598551
scalar OsgEarthNet.uav[54] utilizationSecCharge 150466.81103699
scalar OsgEarthNet.uav[54] utilizationSecIdle 70406.429261223
scalar OsgEarthNet.uav[54] utilizationEnergyMission 109190.78605652
scalar OsgEarthNet.uav[54] utilizationEnergyMaintenance 74176.865947723
scalar OsgEarthNet.uav[54] utilizationEnergyCharge 184179.03710938
scalar OsgEarthNet.uav[54] utilizationEnergyOverdrawMission 0
scalar OsgEarthNet.uav[54] utilizationEnergyOverdrawMaintenance 0
scalar OsgEarthNet.uav[54] utilizationCountMissions 49
scalar OsgEarthNet.uav[54] utilizationCountManeuversMission 642
scalar OsgEarthNet.uav[54] utilizationCountManeuversMaintenance 98
scalar OsgEarthNet.uav[54] utilizationCountChargeState 49
scalar OsgEarthNet.uav[54] utilizationCountOverdrawnAfterMission 0
scalar OsgEarthNet.uav[54] utilizationCountIdleState 49
scalar OsgEarthNet.uav[54] utilizationFail 0
scalar OsgEarthNet.uav[54] simulationTime 259200
scalar OsgEarthNet.uav[55] utilizationSecMission 39517.139705324
scalar OsgEarthNet.uav[55] utilizationSecMaintenance 16726.836026674
scalar OsgEarthNet.uav[55] utilizationSecCharge 194100
scalar OsgEarthNet.uav[55] utilizationSecIdle 8856.0232680012
scalar OsgEarthNet.uav[55] utilizationEnergyMission 187684.89462405
scalar OsgEarthNet.uav[55] utilizationEnergyMaintenance 75702.148704529
scalar OsgEarthNet.uav[55] utilizationEnergyCharge 262707.50195312
scalar OsgEarthNet.uav[55] utilizationEnergyOverdrawMission 0
scalar OsgEarthNet.uav[55] utilizationEnergyOverdrawMaintenance 0
scalar OsgEarthNet.uav[55] utilizationCountMissions 57
scalar OsgEarthNet.uav[55] utilizationCountManeuversMission 1114
scalar OsgEarthNet.uav[55] utilizationCountManeuversMaintenance 115
scalar OsgEarthNet.uav[55] utilizationCountChargeState 57
scalar OsgEarthNet.uav[55] utilizationCountOverdrawnAfterMission 0
scalar OsgEarthNet.uav[55] utilizationCountIdleState 31
scalar OsgEarthNet.uav[55] utilizationFail 0
scalar OsgEarthNet.uav[55] simulationTime 259200
scalar OsgEarthNet.uav[56] utilizationSecMission 18859.635327455
scalar OsgEarthNet.uav[56] utilizationSecMaintenance 10644.878609084
scalar OsgEarthNet.uav[56] utilizationSecCharge 107433.47706346
scalar OsgEarthNet.uav[56] utilizationSecIdle 122262.008
scalar OsgEarthNet.uav[56] utilizationEnergyMission 91108.528579712
scalar OsgEarthNet.uav[56] utilizationEnergyMaintenance 50408.836578369
scalar OsgEarthNet.uav[56] utilizationEnergyCharge 139265.87573242
scalar OsgEarthNet.uav[56] utilizationEnergyOverdrawMission 0
scalar OsgEarthNet.uav[56] utilizationEnergyOverdrawMaintenance 0
scalar OsgEarthNet.uav[56] utilizationCountMissions 31
scalar OsgEarthNet.uav[56] utilizationCountManeuversMission 548
scalar OsgEarthNet.uav[56] utilizationCountManeuversMaintenance 62
scalar OsgEarthNet.uav[56] utilizationCountChargeState 31
scalar OsgEarthNet.uav[56] utilizationCountOverdrawnAfterMission 0
scalar OsgEarthNet.uav[56] utilizationCountIdleState 31
scalar OsgEarthNet.uav[56] utilizationFail 0
scalar OsgEarthNet.uav[56] simulationTime 259200
scalar OsgEarthNet.uav[57] utilizationSecMission 21438.225717826
scalar OsgEarthNet.uav[57] utilizationSecMaintenance 16785.178331706
scalar OsgEarthNet.uav[57] utilizationSecCharge 153372.92677248
scalar OsgEarthNet.uav[57] utilizationSecIdle 67603.668177988
scalar OsgEarthNet.uav[57] utilizationEnergyMission 104030.56214142
scalar OsgEarthNet.uav[57] utilizationEnergyMaintenance 80270.870975494
scalar OsgEarthNet.uav[57] utilizationEnergyCharge 186781.49658203
scalar OsgEarthNet.uav[57] utilizationEnergyOverdrawMission 0
scalar OsgEarthNet.uav[57] utilizationEnergyOverdrawMaintenance 0
scalar OsgEarthNet.uav[57] utilizationCountMissions 50
scalar OsgEarthNet.uav[57] utilizationCountManeuversMission 749
scalar OsgEarthNet.uav[57] utilizationCountManeuversMaintenance 100
scalar OsgEarthNet.uav[57] utilizationCountChargeState 50
scalar OsgEarthNet.uav[57] utilizationCountOverdrawnAfterMission 0
scalar OsgEarthNet.uav[57] utilizationCountIdleState 50
scalar OsgEarthNet.uav[57] utilizationFail 0
scalar OsgEarthNet.uav[57] simulationTime 259200
scalar OsgEarthNet.uav[58] utilizationSecMission 40302.346998145
scalar OsgEarthNet.uav[58] utilizationSecMaintenance 15223.844121941
scalar OsgEarthNet.uav[58] utilizationSecCharge 196081.80787991
scalar OsgEarthNet.uav[58] utilizationSecIdle 7592
scalar OsgEarthNet.uav[58] utilizationEnergyMission 193995.97716522
scalar OsgEarthNet.uav[58] utilizationEnergyMaintenance 69694.714138031
scalar OsgEarthNet.uav[58] utilizationEnergyCharge 264673.87841797
scalar OsgEarthNet.uav[58] utilizationEnergyOverdrawMission 0
scalar OsgEarthNet.uav[58] utilizationEnergyOverdrawMaintenance 0
scalar OsgEarthNet.uav[58] utilizationCountMissions 57
scalar OsgEarthNet.uav[58] utilizationCountManeuversMission 1095
scalar OsgEarthNet.uav[58] utilizationCountManeuversMaintenance 114
scalar OsgEarthNet.uav[58] utilizationCountChargeState 57
scalar OsgEarthNet.uav[58] utilizationCountOverdrawnAfterMission 0
scalar OsgEarthNet.uav[58] utilizationCountIdleState 36
scalar OsgEarthNet.uav[58] utilizationFail 0
scalar OsgEarthNet.uav[58] simulationTime 259200
scalar OsgEarthNet.uav[59] utilizationSecMission 39571.323046748
scalar OsgEarthNet.uav[59] utilizationSecMaintenance 16927.276888935
scalar OsgEarthNet.uav[59] utilizationSecCharge 197749.39906432
scalar OsgEarthNet.uav[59] utilizationSecIdle 4952
scalar OsgEarthNet.uav[59] utilizationEnergyMission 191153.46355438
scalar OsgEarthNet.uav[59] utilizationEnergyMaintenance 77422.813694
scalar OsgEarthNet.uav[59] utilizationEnergyCharge 268982.59228516
scalar OsgEarthNet.uav[59] utilizationEnergyOverdrawMission 0
scalar OsgEarthNet.uav[59] utilizationEnergyOverdrawMaintenance 0
scalar OsgEarthNet.uav[59] utilizationCountMissions 59
scalar OsgEarthNet.uav[59] utilizationCountManeuversMission 1201
scalar OsgEarthNet.uav[59] utilizationCountManeuversMaintenance 117
scalar OsgEarthNet.uav[59] utilizationCountChargeState 59
scalar OsgEarthNet.uav[59] utilizationCountOverdrawnAfterMission 0
scalar OsgEarthNet.uav[59] utilizationCountIdleState 27
scalar OsgEarthNet.uav[59] utilizationFail 0
scalar OsgEarthNet.uav[59] simulationTime 259200
scalar OsgEarthNet.uav[60] utilizationSecMission 18974.738557694
scalar OsgEarthNet.uav[60] utilizationSecMaintenance 12169.885393278
scalar OsgEarthNet.uav[60] utilizationSecCharge 114703.37504903
scalar OsgEarthNet.uav[60] utilizationSecIdle 113352
scalar OsgEarthNet.uav[60] utilizationEnergyMission 93549.773643494
scalar OsgEarthNet.uav[60] utilizationEnergyMaintenance 57504.803142547
scalar OsgEarthNet.uav[60] utilizationEnergyCharge 148585.38720703
scalar OsgEarthNet.uav[60] utilizationEnergyOverdrawMission 0
scalar OsgEarthNet.uav[60] utilizationEnergyOverdrawMaintenance 0
scalar OsgEarthNet.uav[60] utilizationCountMissions 33
scalar OsgEarthNet.uav[60] utilizationCountManeuversMission 629
scalar OsgEarthNet.uav[60] utilizationCountManeuversMaintenance 65
scalar OsgEarthNet.uav[60] utilizationCountChargeState 33
scalar OsgEarthNet.uav[60] utilizationCountOverdrawnAfterMission 0
scalar OsgEarthNet.uav[60] utilizationCountIdleState 33
scalar OsgEarthNet.uav[60] utilizationFail 0
scalar OsgEarthNet.uav[60] simulationTime 259200
scalar OsgEarthNet.uav[61] utilizationSecMission 25151.642405384
scalar OsgEarthNet.uav[61] utilizationSecMaintenance 16693.650895579
scalar OsgEarthNet.uav[61] utilizationSecCharge 159950
scalar OsgEarthNet.uav[61] utilizationSecIdle 57404.705699036
scalar OsgEarthNet.uav[61] utilizationEnergyMission 123281.3261528
scalar OsgEarthNet.uav[61] utilizationEnergyMaintenance 79056.309298059
scalar OsgEarthNet.uav[61] utilizationEnergyCharge 199607.36645508
scalar OsgEarthNet.uav[61] utilizationEnergyOverdrawMission 0
scalar OsgEarthNet.uav[61] utilizationEnergyOverdrawMaintenance 0
scalar OsgEarthNet.uav[61] utilizationCountMissions 49
scalar OsgEarthNet.uav[61] utilizationCountManeuversMission 841
scalar OsgEarthNet.uav[61] utilizationCountManeuversMaintenance 99
scalar OsgEarthNet.uav[61] utilizationCountChargeState 49
scalar OsgEarthNet.uav[61] utilizationCountOverdrawnAfterMission 0
scalar OsgEarthNet.uav[61] utilizationCountIdleState 50
scalar OsgEarthNet.uav[61] utilizationFail 0
scalar OsgEarthNet.uav[61] simulationTime 259200
scalar OsgEarthNet.uav[62] utilizationSecMission 39284.43033565
scalar OsgEarthNet.uav[62] utilizationSecMaintenance 17752.744721473
scalar OsgEarthNet.uav[62] utilizationSecCharge 196930.82094288
scalar OsgEarthNet.uav[62] utilizationSecIdle 5232.003
scalar OsgEarthNet.uav[62] utilizationEnergyMission 192603.29372787
scalar OsgEarthNet.uav[62] utilizationEnergyMaintenance 81115.189640045
scalar OsgEarthNet.uav[62] utilizationEnergyCharge 266348.25274658
scalar OsgEarthNet.uav[62] utilizationEnergyOverdrawMission 0
scalar OsgEarthNet.uav[62] utilizationEnergyOverdrawMaintenance 0
scalar OsgEarthNet.uav[62] utilizationCountMissions 59
scalar OsgEarthNet.uav[62] utilizationCountManeuversMission 1258
scalar OsgEarthNet.uav[62] utilizationCountManeuversMaintenance 118
scalar OsgEarthNet.uav[62] utilizationCountChargeState 59
scalar OsgEarthNet.uav[62] utilizationCountOverdrawnAfterMission 0
scalar OsgEarthNet.uav[62] utilizationCountIdleState 23
scalar OsgEarthNet.uav[62] utilizationFail 0
scalar OsgEarthNet.uav[62] simulationTime 259200
scalar OsgEarthNet.uav[63] utilizationSecMission 17368.752136124
scalar OsgEarthNet.uav[63] utilizationSecMaintenance 10027.352671855
scalar OsgEarthNet.uav[63] utilizationSecCharge 102330
scalar OsgEarthNet.uav[63] utilizationSecIdle 129473.89419202
scalar OsgEarthNet.uav[63] utilizationEnergyMission 83590.605289459
scalar OsgEarthNet.uav[63] utilizationEnergyMaintenance 47503.673366546
scalar OsgEarthNet.uav[63] utilizationEnergyCharge 132009.70703125
scalar OsgEarthNet.uav[63] utilizationEnergyOverdrawMission 0
scalar OsgEarthNet.uav[63] utilizationEnergyOverdrawMaintenance 0
scalar OsgEarthNet.uav[63] utilizationCountMissions 29
scalar OsgEarthNet.uav[63] utilizationCountManeuversMission 504
scalar OsgEarthNet.uav[63] utilizationCountManeuversMaintenance 58
scalar OsgEarthNet.uav[63] utilizationCountChargeState 29
scalar OsgEarthNet.uav[63] utilizationCountOverdrawnAfterMission 0
scalar OsgEarthNet.uav[63] utilizationCountIdleState 30
scalar OsgEarthNet.uav[63] utilizationFail 0
scalar OsgEarthNet.uav[63] simulationTime 259200
scalar OsgEarthNet.uav[64] utilizationSecMission 37404.219634276
scalar OsgEarthNet.uav[64] utilizationSecMaintenance 15968.228168609
scalar OsgEarthNet.uav[64] utilizationSecCharge 188309.19759424
scalar OsgEarthNet.uav[64] utilizationSecIdle 17518.353602879
scalar OsgEarthNet.uav[64] utilizationEnergyMission 178639.22670364
scalar OsgEarthNet.uav[64] utilizationEnergyMaintenance 74554.272258759
scalar OsgEarthNet.uav[64] utilizationEnergyCharge 252815.11474609
scalar OsgEarthNet.uav[64] utilizationEnergyOverdrawMission 0
scalar OsgEarthNet.uav[64] utilizationEnergyOverdrawMaintenance 0
scalar OsgEarthNet.uav[64] utilizationCountMissions 55
scalar OsgEarthNet.uav[64] utilizationCountManeuversMission 1162
scalar OsgEarthNet.uav[64] utilizationCountManeuversMaintenance 110
scalar OsgEarthNet.uav[64] utilizationCountChargeState 55
scalar OsgEarthNet.uav[64] utilizationCountOverdrawnAfterMission 0
scalar OsgEarthNet.uav[64] utilizationCountIdleState 32
scalar OsgEarthNet.uav[64] utilizationFail 0
scalar OsgEarthNet.uav[64] simulationTime 259200
scalar OsgEarthNet.uav[65] utilizationSecMission 38544.205205519
scalar OsgEarthNet.uav[65] utilizationSecMaintenance 18152.411618721
[...]
scalar OsgEarthNet.uav[73] utilizationCountMissions 28
scalar OsgEarthNet.uav[73] utilizationCountManeuversMission 581
scalar OsgEarthNet.uav[73] utilizationCountManeuversMaintenance 57
scalar OsgEarthNet.uav[73] utilizationCountChargeState 28
scalar OsgEarthNet.uav[73] utilizationCountOverdrawnAfterMission 0
scalar OsgEarthNet.uav[73] utilizationCountIdleState 29
scalar OsgEarthNet.uav[73] utilizationFail 0
scalar OsgEarthNet.uav[73] simulationTime 259200
scalar OsgEarthNet.uav[74] utilizationSecMission 23081.385364271
scalar OsgEarthNet.uav[74] utilizationSecMaintenance 17702.902126262
scalar OsgEarthNet.uav[74] utilizationSecCharge 164913.70950947
scalar OsgEarthNet.uav[74] utilizationSecIdle 53502.002
scalar OsgEarthNet.uav[74] utilizationEnergyMission 112434.23490143
scalar OsgEarthNet.uav[74] utilizationEnergyMaintenance 85210.202728271
scalar OsgEarthNet.uav[74] utilizationEnergyCharge 196326.03686523
scalar OsgEarthNet.uav[74] utilizationEnergyOverdrawMission 0
scalar OsgEarthNet.uav[74] utilizationEnergyOverdrawMaintenance 0
scalar OsgEarthNet.uav[74] utilizationCountMissions 56
scalar OsgEarthNet.uav[74] utilizationCountManeuversMission 638
scalar OsgEarthNet.uav[74] utilizationCountManeuversMaintenance 112
scalar OsgEarthNet.uav[74] utilizationCountChargeState 56
scalar OsgEarthNet.uav[74] utilizationCountOverdrawnAfterMission 0
scalar OsgEarthNet.uav[74] utilizationCountIdleState 56
scalar OsgEarthNet.uav[74] utilizationFail 0
scalar OsgEarthNet.uav[74] simulationTime 259200
scalar OsgEarthNet.uav[75] utilizationSecMission 36667.17000538
scalar OsgEarthNet.uav[75] utilizationSecMaintenance 17227.651335244
scalar OsgEarthNet.uav[75] utilizationSecCharge 187995.54657871
scalar OsgEarthNet.uav[75] utilizationSecIdle 17309.631080665
scalar OsgEarthNet.uav[75] utilizationEnergyMission 176145.87236786
scalar OsgEarthNet.uav[75] utilizationEnergyMaintenance 79199.093521118
scalar OsgEarthNet.uav[75] utilizationEnergyCharge 254479.60693359
scalar OsgEarthNet.uav[75] utilizationEnergyOverdrawMission 0
scalar OsgEarthNet.uav[75] utilizationEnergyOverdrawMaintenance 0
scalar OsgEarthNet.uav[75] utilizationCountMissions 56
scalar OsgEarthNet.uav[75] utilizationCountManeuversMission 1129
scalar OsgEarthNet.uav[75] utilizationCountManeuversMaintenance 112
scalar OsgEarthNet.uav[75] utilizationCountChargeState 56
scalar OsgEarthNet.uav[75] utilizationCountOverdrawnAfterMission 0
scalar OsgEarthNet.uav[75] utilizationCountIdleState 29
scalar OsgEarthNet.uav[75] utilizationFail 0
scalar OsgEarthNet.uav[75] simulationTime 259200
scalar OsgEarthNet.uav[76] utilizationSecMission 16976.618639633
scalar OsgEarthNet.uav[76] utilizationSecMaintenance 11183.245626634
scalar OsgEarthNet.uav[76] utilizationSecCharge 105800
scalar OsgEarthNet.uav[76] utilizationSecIdle 125240.13473373
scalar OsgEarthNet.uav[76] utilizationEnergyMission 84074.134246826
scalar OsgEarthNet.uav[76] utilizationEnergyMaintenance 53399.766395569
scalar OsgEarthNet.uav[76] utilizationEnergyCharge 136473.9609375
scalar OsgEarthNet.uav[76] utilizationEnergyOverdrawMission 0
scalar OsgEarthNet.uav[76] utilizationEnergyOverdrawMaintenance 0
scalar OsgEarthNet.uav[76] utilizationCountMissions 30
scalar OsgEarthNet.uav[76] utilizationCountManeuversMission 567
scalar OsgEarthNet.uav[76] utilizationCountManeuversMaintenance 60
scalar OsgEarthNet.uav[76] utilizationCountChargeState 30
scalar OsgEarthNet.uav[76] utilizationCountOverdrawnAfterMission 0
scalar OsgEarthNet.uav[76] utilizationCountIdleState 31
scalar OsgEarthNet.uav[76] utilizationFail 0
scalar OsgEarthNet.uav[76] simulationTime 259200
scalar OsgEarthNet.uav[77] utilizationSecMission 26294.802051829
scalar OsgEarthNet.uav[77] utilizationSecMaintenance 17357.880866341
scalar OsgEarthNet.uav[77] utilizationSecCharge 167760
scalar OsgEarthNet.uav[77] utilizationSecIdle 47787.316081831
scalar OsgEarthNet.uav[77] utilizationEnergyMission 126108.4332428
scalar OsgEarthNet.uav[77] utilizationEnergyMaintenance 83076.054176847
scalar OsgEarthNet.uav[77] utilizationEnergyCharge 204995.69042969
scalar OsgEarthNet.uav[77] utilizationEnergyOverdrawMission 0
scalar OsgEarthNet.uav[77] utilizationEnergyOverdrawMaintenance 0
scalar OsgEarthNet.uav[77] utilizationCountMissions 55
scalar OsgEarthNet.uav[77] utilizationCountManeuversMission 705
scalar OsgEarthNet.uav[77] utilizationCountManeuversMaintenance 110
scalar OsgEarthNet.uav[77] utilizationCountChargeState 54
scalar OsgEarthNet.uav[77] utilizationCountOverdrawnAfterMission 0
scalar OsgEarthNet.uav[77] utilizationCountIdleState 55
scalar OsgEarthNet.uav[77] utilizationFail 0
scalar OsgEarthNet.uav[77] simulationTime 259200
scalar OsgEarthNet.uav[78] utilizationSecMission 39016.799203207
scalar OsgEarthNet.uav[78] utilizationSecMaintenance 17308.440497422
scalar OsgEarthNet.uav[78] utilizationSecCharge 196734.92248533
scalar OsgEarthNet.uav[78] utilizationSecIdle 6139.83681404
scalar OsgEarthNet.uav[78] utilizationEnergyMission 185159.97986221
scalar OsgEarthNet.uav[78] utilizationEnergyMaintenance 80320.505084991
scalar OsgEarthNet.uav[78] utilizationEnergyCharge 266718.33105469
scalar OsgEarthNet.uav[78] utilizationEnergyOverdrawMission 0
scalar OsgEarthNet.uav[78] utilizationEnergyOverdrawMaintenance 0
scalar OsgEarthNet.uav[78] utilizationCountMissions 58
scalar OsgEarthNet.uav[78] utilizationCountManeuversMission 1067
scalar OsgEarthNet.uav[78] utilizationCountManeuversMaintenance 116
scalar OsgEarthNet.uav[78] utilizationCountChargeState 58
scalar OsgEarthNet.uav[78] utilizationCountOverdrawnAfterMission 0
scalar OsgEarthNet.uav[78] utilizationCountIdleState 25
scalar OsgEarthNet.uav[78] utilizationFail 0
scalar OsgEarthNet.uav[78] simulationTime 259200
scalar OsgEarthNet.uav[79] utilizationSecMission 19488.752136124
scalar OsgEarthNet.uav[79] utilizationSecMaintenance 11642.344935316
scalar OsgEarthNet.uav[79] utilizationSecCharge 113496.88392856
scalar OsgEarthNet.uav[79] utilizationSecIdle 114572.018
scalar OsgEarthNet.uav[79] utilizationEnergyMission 93465.922771454
scalar OsgEarthNet.uav[79] utilizationEnergyMaintenance 55782.618297577
scalar OsgEarthNet.uav[79] utilizationEnergyCharge 146640.9005127
scalar OsgEarthNet.uav[79] utilizationEnergyOverdrawMission 0
scalar OsgEarthNet.uav[79] utilizationEnergyOverdrawMaintenance 0
scalar OsgEarthNet.uav[79] utilizationCountMissions 33
scalar OsgEarthNet.uav[79] utilizationCountManeuversMission 610
scalar OsgEarthNet.uav[79] utilizationCountManeuversMaintenance 66
scalar OsgEarthNet.uav[79] utilizationCountChargeState 33
scalar OsgEarthNet.uav[79] utilizationCountOverdrawnAfterMission 0
scalar OsgEarthNet.uav[79] utilizationCountIdleState 33
scalar OsgEarthNet.uav[79] utilizationFail 0
scalar OsgEarthNet.uav[79] simulationTime 259200
scalar OsgEarthNet.uav[80] utilizationSecMission 18727.610906043
scalar OsgEarthNet.uav[80] utilizationSecMaintenance 11972.805772087
scalar OsgEarthNet.uav[80] utilizationSecCharge 115680
scalar OsgEarthNet.uav[80] utilizationSecIdle 112819.58232187
scalar OsgEarthNet.uav[80] utilizationEnergyMission 92177.780395508
scalar OsgEarthNet.uav[80] utilizationEnergyMaintenance 56898.594261169
scalar OsgEarthNet.uav[80] utilizationEnergyCharge 148958.8046875
scalar OsgEarthNet.uav[80] utilizationEnergyOverdrawMission 0
scalar OsgEarthNet.uav[80] utilizationEnergyOverdrawMaintenance 0
scalar OsgEarthNet.uav[80] utilizationCountMissions 33
scalar OsgEarthNet.uav[80] utilizationCountManeuversMission 607
scalar OsgEarthNet.uav[80] utilizationCountManeuversMaintenance 66
scalar OsgEarthNet.uav[80] utilizationCountChargeState 33
scalar OsgEarthNet.uav[80] utilizationCountOverdrawnAfterMission 0
scalar OsgEarthNet.uav[80] utilizationCountIdleState 34
scalar OsgEarthNet.uav[80] utilizationFail 0
scalar OsgEarthNet.uav[80] simulationTime 259200
scalar OsgEarthNet.uav[81] utilizationSecMission 26504.135801771
scalar OsgEarthNet.uav[81] utilizationSecMaintenance 17225.680510554
scalar OsgEarthNet.uav[81] utilizationSecCharge 166273.75842645
scalar OsgEarthNet.uav[81] utilizationSecIdle 49196.424261223
scalar OsgEarthNet.uav[81] utilizationEnergyMission 128491.00099945
scalar OsgEarthNet.uav[81] utilizationEnergyMaintenance 81830.342655182
scalar OsgEarthNet.uav[81] utilizationEnergyCharge 209094.41040039
scalar OsgEarthNet.uav[81] utilizationEnergyOverdrawMission 0
scalar OsgEarthNet.uav[81] utilizationEnergyOverdrawMaintenance 0
scalar OsgEarthNet.uav[81] utilizationCountMissions 51
scalar OsgEarthNet.uav[81] utilizationCountManeuversMission 872
scalar OsgEarthNet.uav[81] utilizationCountManeuversMaintenance 102
scalar OsgEarthNet.uav[81] utilizationCountChargeState 51
scalar OsgEarthNet.uav[81] utilizationCountOverdrawnAfterMission 0
scalar OsgEarthNet.uav[81] utilizationCountIdleState 51
scalar OsgEarthNet.uav[81] utilizationFail 0
scalar OsgEarthNet.uav[81] simulationTime 259200
scalar OsgEarthNet.uav[82] utilizationSecMission 40805.885868757
scalar OsgEarthNet.uav[82] utilizationSecMaintenance 15852.112131243
scalar OsgEarthNet.uav[82] utilizationSecCharge 196730
scalar OsgEarthNet.uav[82] utilizationSecIdle 5812.001
scalar OsgEarthNet.uav[82] utilizationEnergyMission 195315.19597023
scalar OsgEarthNet.uav[82] utilizationEnergyMaintenance 72706.90467453
scalar OsgEarthNet.uav[82] utilizationEnergyCharge 265965.03515625
scalar OsgEarthNet.uav[82] utilizationEnergyOverdrawMission 0
scalar OsgEarthNet.uav[82] utilizationEnergyOverdrawMaintenance 0
scalar OsgEarthNet.uav[82] utilizationCountMissions 57
scalar OsgEarthNet.uav[82] utilizationCountManeuversMission 1081
scalar OsgEarthNet.uav[82] utilizationCountManeuversMaintenance 115
scalar OsgEarthNet.uav[82] utilizationCountChargeState 57
scalar OsgEarthNet.uav[82] utilizationCountOverdrawnAfterMission 0
scalar OsgEarthNet.uav[82] utilizationCountIdleState 30
scalar OsgEarthNet.uav[82] utilizationFail 0
scalar OsgEarthNet.uav[82] simulationTime 259200
scalar OsgEarthNet.uav[83] utilizationSecMission 19147.501830963
scalar OsgEarthNet.uav[83] utilizationSecMaintenance 12248.203290712
scalar OsgEarthNet.uav[83] utilizationSecCharge 116082.29187833
scalar OsgEarthNet.uav[83] utilizationSecIdle 111722.002
scalar OsgEarthNet.uav[83] utilizationEnergyMission 92459.814880371
scalar OsgEarthNet.uav[83] utilizationEnergyMaintenance 57897.66796112
scalar OsgEarthNet.uav[83] utilizationEnergyCharge 150503.15820312
scalar OsgEarthNet.uav[83] utilizationEnergyOverdrawMission 0
scalar OsgEarthNet.uav[83] utilizationEnergyOverdrawMaintenance 0
scalar OsgEarthNet.uav[83] utilizationCountMissions 33
scalar OsgEarthNet.uav[83] utilizationCountManeuversMission 645
scalar OsgEarthNet.uav[83] utilizationCountManeuversMaintenance 66
scalar OsgEarthNet.uav[83] utilizationCountChargeState 33
scalar OsgEarthNet.uav[83] utilizationCountOverdrawnAfterMission 0
scalar OsgEarthNet.uav[83] utilizationCountIdleState 33
scalar OsgEarthNet.uav[83] utilizationFail 0
scalar OsgEarthNet.uav[83] simulationTime 259200
scalar OsgEarthNet.uav[84] utilizationSecMission 27148.139951463
scalar OsgEarthNet.uav[84] utilizationSecMaintenance 17737.446950773
scalar OsgEarthNet.uav[84] utilizationSecCharge 169442.41109776
scalar OsgEarthNet.uav[84] utilizationSecIdle 44872.001
scalar OsgEarthNet.uav[84] utilizationEnergyMission 134633.43001556
scalar OsgEarthNet.uav[84] utilizationEnergyMaintenance 84163.115951538
scalar OsgEarthNet.uav[84] utilizationEnergyCharge 213418.4440918
scalar OsgEarthNet.uav[84] utilizationEnergyOverdrawMission 0
scalar OsgEarthNet.uav[84] utilizationEnergyOverdrawMaintenance 0
scalar OsgEarthNet.uav[84] utilizationCountMissions 52
scalar OsgEarthNet.uav[84] utilizationCountManeuversMission 966
scalar OsgEarthNet.uav[84] utilizationCountManeuversMaintenance 104
scalar OsgEarthNet.uav[84] utilizationCountChargeState 52
scalar OsgEarthNet.uav[84] utilizationCountOverdrawnAfterMission 0
scalar OsgEarthNet.uav[84] utilizationCountIdleState 52
scalar OsgEarthNet.uav[84] utilizationFail 0
scalar OsgEarthNet.uav[84] simulationTime 259200
scalar OsgEarthNet.uav[85] utilizationSecMission 39970.265172369
scalar OsgEarthNet.uav[85] utilizationSecMaintenance 16452.87147971
scalar OsgEarthNet.uav[85] utilizationSecCharge 194717.40399661
scalar OsgEarthNet.uav[85] utilizationSecIdle 8059.4583513061
scalar OsgEarthNet.uav[85] utilizationEnergyMission 190265.60647583
scalar OsgEarthNet.uav[85] utilizationEnergyMaintenance 75614.188194275
scalar OsgEarthNet.uav[85] utilizationEnergyCharge 263811.48388672
scalar OsgEarthNet.uav[85] utilizationEnergyOverdrawMission 0
scalar OsgEarthNet.uav[85] utilizationEnergyOverdrawMaintenance 0
scalar OsgEarthNet.uav[85] utilizationCountMissions 57
scalar OsgEarthNet.uav[85] utilizationCountManeuversMission 1065
scalar OsgEarthNet.uav[85] utilizationCountManeuversMaintenance 114
scalar OsgEarthNet.uav[85] utilizationCountChargeState 57
scalar OsgEarthNet.uav[85] utilizationCountOverdrawnAfterMission 0
scalar OsgEarthNet.uav[85] utilizationCountIdleState 29
scalar OsgEarthNet.uav[85] utilizationFail 0
scalar OsgEarthNet.uav[85] simulationTime 259200
scalar OsgEarthNet.uav[86] utilizationSecMission 17228.126983544
scalar OsgEarthNet.uav[86] utilizationSecMaintenance 10194.2308666
scalar OsgEarthNet.uav[86] utilizationSecCharge 101960
scalar OsgEarthNet.uav[86] utilizationSecIdle 129817.64114986
scalar OsgEarthNet.uav[86] utilizationEnergyMission 82922.324871063
scalar OsgEarthNet.uav[86] utilizationEnergyMaintenance 48470.586147308
scalar OsgEarthNet.uav[86] utilizationEnergyCharge 131531.7109375
scalar OsgEarthNet.uav[86] utilizationEnergyOverdrawMission 0
scalar OsgEarthNet.uav[86] utilizationEnergyOverdrawMaintenance 0
scalar OsgEarthNet.uav[86] utilizationCountMissions 29
scalar OsgEarthNet.uav[86] utilizationCountManeuversMission 523
scalar OsgEarthNet.uav[86] utilizationCountManeuversMaintenance 58
scalar OsgEarthNet.uav[86] utilizationCountChargeState 29
scalar OsgEarthNet.uav[86] utilizationCountOverdrawnAfterMission 0
scalar OsgEarthNet.uav[86] utilizationCountIdleState 30
scalar OsgEarthNet.uav[86] utilizationFail 0
scalar OsgEarthNet.uav[86] simulationTime 259200
scalar OsgEarthNet.uav[87] utilizationSecMission 25687.066035738
scalar OsgEarthNet.uav[87] utilizationSecMaintenance 16425.523072912
scalar OsgEarthNet.uav[87] utilizationSecCharge 161230
scalar OsgEarthNet.uav[87] utilizationSecIdle 55857.40989135
scalar OsgEarthNet.uav[87] utilizationEnergyMission 125902.51804278
scalar OsgEarthNet.uav[87] utilizationEnergyMaintenance 77998.035747528
scalar OsgEarthNet.uav[87] utilizationEnergyCharge 203713.40771484
scalar OsgEarthNet.uav[87] utilizationEnergyOverdrawMission 0
scalar OsgEarthNet.uav[87] utilizationEnergyOverdrawMaintenance 0
scalar OsgEarthNet.uav[87] utilizationCountMissions 48
scalar OsgEarthNet.uav[87] utilizationCountManeuversMission 833
scalar OsgEarthNet.uav[87] utilizationCountManeuversMaintenance 97
scalar OsgEarthNet.uav[87] utilizationCountChargeState 48
scalar OsgEarthNet.uav[87] utilizationCountOverdrawnAfterMission 0
scalar OsgEarthNet.uav[87] utilizationCountIdleState 49
scalar OsgEarthNet.uav[87] utilizationFail 0
scalar OsgEarthNet.uav[87] simulationTime 259200
scalar OsgEarthNet.uav[88] utilizationSecMission 38109.454194431
scalar OsgEarthNet.uav[88] utilizationSecMaintenance 17760.61108552
scalar OsgEarthNet.uav[88] utilizationSecCharge 197830
scalar OsgEarthNet.uav[88] utilizationSecIdle 5499.9337200496
scalar OsgEarthNet.uav[88] utilizationEnergyMission 185884.20832062
scalar OsgEarthNet.uav[88] utilizationEnergyMaintenance 81953.81603241
scalar OsgEarthNet.uav[88] utilizationEnergyCharge 268407.60742188
scalar OsgEarthNet.uav[88] utilizationEnergyOverdrawMission 0
scalar OsgEarthNet.uav[88] utilizationEnergyOverdrawMaintenance 0
scalar OsgEarthNet.uav[88] utilizationCountMissions 58
scalar OsgEarthNet.uav[88] utilizationCountManeuversMission 1235
scalar OsgEarthNet.uav[88] utilizationCountManeuversMaintenance 116
scalar OsgEarthNet.uav[88] utilizationCountChargeState 58
scalar OsgEarthNet.uav[88] utilizationCountOverdrawnAfterMission 0
scalar OsgEarthNet.uav[88] utilizationCountIdleState 29
scalar OsgEarthNet.uav[88] utilizationFail 0
scalar OsgEarthNet.uav[88] simulationTime 259200
scalar OsgEarthNet.uav[89] utilizationSecMission 18938.901099795
scalar OsgEarthNet.uav[89] utilizationSecMaintenance 11534.648690386
scalar OsgEarthNet.uav[89] utilizationSecCharge 112889.30017912
scalar OsgEarthNet.uav[89] utilizationSecIdle 115837.1490307
scalar OsgEarthNet.uav[89] utilizationEnergyMission 89039.645427704
scalar OsgEarthNet.uav[89] utilizationEnergyMaintenance 54897.590373993
scalar OsgEarthNet.uav[89] utilizationEnergyCharge 146326.59277344
scalar OsgEarthNet.uav[89] utilizationEnergyOverdrawMission 0
scalar OsgEarthNet.uav[89] utilizationEnergyOverdrawMaintenance 0
scalar OsgEarthNet.uav[89] utilizationCountMissions 32
scalar OsgEarthNet.uav[89] utilizationCountManeuversMission 595
scalar OsgEarthNet.uav[89] utilizationCountManeuversMaintenance 64
scalar OsgEarthNet.uav[89] utilizationCountChargeState 32
scalar OsgEarthNet.uav[89] utilizationCountOverdrawnAfterMission 0
scalar OsgEarthNet.uav[89] utilizationCountIdleState 32
scalar OsgEarthNet.uav[89] utilizationFail 0
scalar OsgEarthNet.uav[89] simulationTime 259200
scalar OsgEarthNet.uav[90] utilizationSecMission 18749.377288704
scalar OsgEarthNet.uav[90] utilizationSecMaintenance 10585.351137178
scalar OsgEarthNet.uav[90] utilizationSecCharge 106400
scalar OsgEarthNet.uav[90] utilizationSecIdle 123465.27057412
scalar OsgEarthNet.uav[90] utilizationEnergyMission 89371.377548218
scalar OsgEarthNet.uav[90] utilizationEnergyMaintenance 50642.392519912
scalar OsgEarthNet.uav[90] utilizationEnergyCharge 137488.00634766
scalar OsgEarthNet.uav[90] utilizationEnergyOverdrawMission 0
scalar OsgEarthNet.uav[90] utilizationEnergyOverdrawMaintenance 0
scalar OsgEarthNet.uav[90] utilizationCountMissions 31
scalar OsgEarthNet.uav[90] utilizationCountManeuversMission 547
scalar OsgEarthNet.uav[90] utilizationCountManeuversMaintenance 62
scalar OsgEarthNet.uav[90] utilizationCountChargeState 30
scalar OsgEarthNet.uav[90] utilizationCountOverdrawnAfterMission 0
scalar OsgEarthNet.uav[90] utilizationCountIdleState 31
scalar OsgEarthNet.uav[90] utilizationFail 0
scalar OsgEarthNet.uav[90] simulationTime 259200
scalar OsgEarthNet.uav[91] utilizationSecMission 34080.749847963
scalar OsgEarthNet.uav[91] utilizationSecMaintenance 16677.552308564
scalar OsgEarthNet.uav[91] utilizationSecCharge 182257.93485597
scalar OsgEarthNet.uav[91] utilizationSecIdle 26183.761987508
scalar OsgEarthNet.uav[91] utilizationEnergyMission 166804.015522
scalar OsgEarthNet.uav[91] utilizationEnergyMaintenance 76770.804126739
scalar OsgEarthNet.uav[91] utilizationEnergyCharge 240375.34326172
scalar OsgEarthNet.uav[91] utilizationEnergyOverdrawMission 0
scalar OsgEarthNet.uav[91] utilizationEnergyOverdrawMaintenance 0
scalar OsgEarthNet.uav[91] utilizationCountMissions 54
scalar OsgEarthNet.uav[91] utilizationCountManeuversMission 1206
scalar OsgEarthNet.uav[91] utilizationCountManeuversMaintenance 108
scalar OsgEarthNet.uav[91] utilizationCountChargeState 54
scalar OsgEarthNet.uav[91] utilizationCountOverdrawnAfterMission 0
scalar OsgEarthNet.uav[91] utilizationCountIdleState 38
scalar OsgEarthNet.uav[91] utilizationFail 0
scalar OsgEarthNet.uav[91] simulationTime 259200
scalar OsgEarthNet.cs[0] usedPower 4019757.5362577
scalar OsgEarthNet.cs[0] chargedPower 4019757.5362577
scalar OsgEarthNet.cs[0] chargedMobileNodes 879
scalar OsgEarthNet.cs[0] reservations 892
scalar OsgEarthNet.cs[1] usedPower 4148497.3282533
scalar OsgEarthNet.cs[1] chargedPower 4148497.3282533
scalar OsgEarthNet.cs[1] chargedMobileNodes 1031
scalar OsgEarthNet.cs[1] reservations 1045
scalar OsgEarthNet.cs[2] usedPower 8691357.0981752
scalar OsgEarthNet.cs[2] chargedPower 8691357.0981752
scalar OsgEarthNet.cs[2] chargedMobileNodes 948
scalar OsgEarthNet.cs[2] reservations 1893

