version 2
run Szenario_Hotel_Gabelbach-371-20180719-15:17:03-25200
attr configname Szenario_Hotel_Gabelbach
attr datetime 20180719-15:17:03
attr experiment Szenario_Hotel_Gabelbach
attr inifile omnetpp.ini
attr iterationvars "$replM=2, $biWeight=0.35, $replSearchM=1, $numUAVs=82"
attr iterationvarsf replM=2,biWeight=0.35,replSearchM=1,numUAVs=82-
attr measurement "$replM=2, $biWeight=0.35, $replSearchM=1, $numUAVs=82"
attr network OsgEarthNet
attr processid 25200
attr repetition 11
attr replication #11
attr resultdir results
attr runnumber 371
attr seedset 371
itervar biWeight 0.35
itervar numUAVs 82
itervar replM 2
itervar replSearchM 1
param *.osgEarthScene.scene "\"Szenario_Hotel_Gabelbach.earth\""
param *.playgroundLatitude 50.6830269
param *.playgroundLongitude 10.8538055
param *.playgroundWidth 3500m
param *.playgroundHeight 3500m
param *.cs[0].posX 3537m
param *.cs[0].posY 965m
param *.cs[0].posZ 538m
param *.cs[1].posX 312m
param *.cs[1].posY 1262m
param *.cs[1].posZ 539m
param *.cs[2].posX 2185m
param *.cs[2].posY 3026m
param *.cs[2].posZ 777m
param *.cs[3].posX 10m
param *.cs[3].posY 2200m
param *.cs[3].posZ 560m
param *.cs[4].posX 750m
param *.cs[4].posY 200m
param *.cs[4].posZ 540m
param *.cs[5].posX 2450m
param *.cs[5].posY 180m
param *.cs[5].posZ 524m
param *.cs[6].posX 3140m
param *.cs[6].posY 1790m
param *.cs[6].posZ 606m
param *.numCSs 3
param *.uav[*].replacementMethod 2
param *.uav[*].weightedSumWeight 0.35
param *.missionControl.replacementSearchMethod 1
param *.numUAVs 82
param *.*.timeStep 10s
param *.uav[*].commandPreviewCommandCount 20
param *.missionControl.missionFiles "\"missions\\\\Szenario_WB_Hotel_Gabelbach_Mission_Hotel.waypoints,missions\\\\Szenario_WB_Hotel_Gabelbach_Mission_Kickelhahn.waypoints,missions\\\\Szenario_WB_Hotel_Gabelbach_Mission_Ilmenau_Sportplatz.waypoints,missions\\\\Szenario_WB_Hotel_Gabelbach_Mission_Manebach_Mitte.waypoints,missions\\\\Szenario_WB_Hotel_Gabelbach_Mission_Manebach_Sued.waypoints,missions\\\\Szenario_WB_Hotel_Gabelbach_Hover_HoheSchlaufe.waypoints,missions\\\\Szenario_WB_Hotel_Gabelbach_Hover_Kickelhahn.waypoints,missions\\\\Szenario_WB_Hotel_Gabelbach_Hover_Gabelbachskopf.waypoints,missions\\\\Szenario_WB_Hotel_Gabelbach_Hover_Dachskopf.waypoints\""
param *.uav[0].startX 3537m
param *.uav[0].startY 965m
param *.uav[0].startZ 539m
param *.uav[1].startX 312m
param *.uav[1].startY 1262m
param *.uav[1].startZ 540m
param *.uav[2].startX 2185m
param *.uav[2].startY 3026m
param *.uav[2].startZ 778m
param *.uav[3].startX 3537m
param *.uav[3].startY 965m
param *.uav[3].startZ 539m
param *.uav[4].startX 312m
param *.uav[4].startY 1262m
param *.uav[4].startZ 540m
param *.uav[5].startX 2185m
param *.uav[5].startY 3026m
param *.uav[5].startZ 778m
param *.uav[6].startX 3537m
param *.uav[6].startY 965m
param *.uav[6].startZ 539m
param *.uav[7].startX 312m
param *.uav[7].startY 1262m
param *.uav[7].startZ 540m
param *.uav[8].startX 2185m
param *.uav[8].startY 3026m
param *.uav[8].startZ 778m
param *.uav[9].startX 3537m
param *.uav[9].startY 965m
param *.uav[9].startZ 539m
param *.uav[10].startX 3537m
param *.uav[10].startY 965m
param *.uav[10].startZ 539m
param *.uav[11].startX 312m
param *.uav[11].startY 1262m
param *.uav[11].startZ 540m
param *.uav[12].startX 2185m
param *.uav[12].startY 3026m
param *.uav[12].startZ 778m
param *.uav[13].startX 3537m
param *.uav[13].startY 965m
param *.uav[13].startZ 539m
param *.uav[14].startX 312m
param *.uav[14].startY 1262m
param *.uav[14].startZ 540m
param *.uav[15].startX 2185m
param *.uav[15].startY 3026m
param *.uav[15].startZ 778m
param *.uav[16].startX 3537m
param *.uav[16].startY 965m
param *.uav[16].startZ 539m
param *.uav[17].startX 312m
param *.uav[17].startY 1262m
param *.uav[17].startZ 540m
param *.uav[18].startX 2185m
param *.uav[18].startY 3026m
param *.uav[18].startZ 778m
param *.uav[19].startX 3537m
param *.uav[19].startY 965m
param *.uav[19].startZ 539m
param *.uav[20].startX 3537m
param *.uav[20].startY 965m
param *.uav[20].startZ 539m
param *.uav[21].startX 312m
param *.uav[21].startY 1262m
param *.uav[21].startZ 540m
param *.uav[22].startX 2185m
param *.uav[22].startY 3026m
param *.uav[22].startZ 778m
param *.uav[23].startX 3537m
param *.uav[23].startY 965m
param *.uav[23].startZ 539m
param *.uav[24].startX 312m
param *.uav[24].startY 1262m
param *.uav[24].startZ 540m
param *.uav[25].startX 2185m
param *.uav[25].startY 3026m
param *.uav[25].startZ 778m
param *.uav[26].startX 3537m
param *.uav[26].startY 965m
param *.uav[26].startZ 539m
param *.uav[27].startX 312m
param *.uav[27].startY 1262m
param *.uav[27].startZ 540m
param *.uav[28].startX 2185m
param *.uav[28].startY 3026m
param *.uav[28].startZ 778m
param *.uav[29].startX 3537m
param *.uav[29].startY 965m
param *.uav[29].startZ 539m
param *.uav[30].startX 3537m
param *.uav[30].startY 965m
param *.uav[30].startZ 539m
param *.uav[31].startX 312m
param *.uav[31].startY 1262m
param *.uav[31].startZ 540m
param *.uav[32].startX 2185m
param *.uav[32].startY 3026m
param *.uav[32].startZ 778m
param *.uav[33].startX 3537m
param *.uav[33].startY 965m
param *.uav[33].startZ 539m
param *.uav[34].startX 312m
param *.uav[34].startY 1262m
param *.uav[34].startZ 540m
param *.uav[35].startX 2185m
param *.uav[35].startY 3026m
param *.uav[35].startZ 778m
param *.uav[36].startX 3537m
param *.uav[36].startY 965m
param *.uav[36].startZ 539m
param *.uav[37].startX 312m
param *.uav[37].startY 1262m
param *.uav[37].startZ 540m
param *.uav[38].startX 2185m
param *.uav[38].startY 3026m
param *.uav[38].startZ 778m
param *.uav[39].startX 3537m
param *.uav[39].startY 965m
param *.uav[39].startZ 539m
param *.uav[40].startX 3537m
param *.uav[40].startY 965m
param *.uav[40].startZ 539m
param *.uav[41].startX 312m
param *.uav[41].startY 1262m
param *.uav[41].startZ 540m
param *.uav[42].startX 2185m
param *.uav[42].startY 3026m
param *.uav[42].startZ 778m
param *.uav[43].startX 3537m
param *.uav[43].startY 965m
param *.uav[43].startZ 539m
param *.uav[44].startX 312m
param *.uav[44].startY 1262m
param *.uav[44].startZ 540m
param *.uav[45].startX 2185m
param *.uav[45].startY 3026m
param *.uav[45].startZ 778m
param *.uav[46].startX 3537m
param *.uav[46].startY 965m
param *.uav[46].startZ 539m
param *.uav[47].startX 312m
param *.uav[47].startY 1262m
param *.uav[47].startZ 540m
param *.uav[48].startX 2185m
param *.uav[48].startY 3026m
param *.uav[48].startZ 778m
param *.uav[49].startX 3537m
param *.uav[49].startY 965m
param *.uav[49].startZ 539m
param *.uav[50].startX 3537m
param *.uav[50].startY 965m
param *.uav[50].startZ 539m
param *.uav[51].startX 312m
param *.uav[51].startY 1262m
param *.uav[51].startZ 540m
param *.uav[52].startX 2185m
param *.uav[52].startY 3026m
param *.uav[52].startZ 778m
param *.uav[53].startX 3537m
param *.uav[53].startY 965m
param *.uav[53].startZ 539m
param *.uav[54].startX 312m
param *.uav[54].startY 1262m
param *.uav[54].startZ 540m
param *.uav[55].startX 2185m
param *.uav[55].startY 3026m
param *.uav[55].startZ 778m
param *.uav[56].startX 3537m
param *.uav[56].startY 965m
param *.uav[56].startZ 539m
param *.uav[57].startX 312m
param *.uav[57].startY 1262m
param *.uav[57].startZ 540m
param *.uav[58].startX 2185m
param *.uav[58].startY 3026m
param *.uav[58].startZ 778m
param *.uav[59].startX 3537m
param *.uav[59].startY 965m
param *.uav[59].startZ 539m
param *.uav[60].startX 3537m
param *.uav[60].startY 965m
param *.uav[60].startZ 539m
param *.uav[61].startX 312m
param *.uav[61].startY 1262m
param *.uav[61].startZ 540m
param *.uav[62].startX 2185m
param *.uav[62].startY 3026m
param *.uav[62].startZ 778m
param *.uav[63].startX 3537m
param *.uav[63].startY 965m
param *.uav[63].startZ 539m
param *.uav[64].startX 312m
param *.uav[64].startY 1262m
param *.uav[64].startZ 540m
param *.uav[65].startX 2185m
param *.uav[65].startY 3026m
param *.uav[65].startZ 778m
param *.uav[66].startX 3537m
param *.uav[66].startY 965m
param *.uav[66].startZ 539m
param *.uav[67].startX 312m
param *.uav[67].startY 1262m
param *.uav[67].startZ 540m
param *.uav[68].startX 2185m
param *.uav[68].startY 3026m
param *.uav[68].startZ 778m
param *.uav[69].startX 3537m
param *.uav[69].startY 965m
param *.uav[69].startZ 539m
param *.uav[70].startX 3537m
param *.uav[70].startY 965m
param *.uav[70].startZ 539m
param *.uav[71].startX 312m
param *.uav[71].startY 1262m
param *.uav[71].startZ 540m
param *.uav[72].startX 2185m
param *.uav[72].startY 3026m
param *.uav[72].startZ 778m
param *.uav[73].startX 3537m
param *.uav[73].startY 965m
param *.uav[73].startZ 539m
param *.uav[74].startX 312m
param *.uav[74].startY 1262m
param *.uav[74].startZ 540m
param *.uav[75].startX 2185m
param *.uav[75].startY 3026m
param *.uav[75].startZ 778m
param *.uav[76].startX 3537m
param *.uav[76].startY 965m
param *.uav[76].startZ 539m
param *.uav[77].startX 312m
param *.uav[77].startY 1262m
param *.uav[77].startZ 540m
param *.uav[78].startX 2185m
param *.uav[78].startY 3026m
param *.uav[78].startZ 778m
param *.uav[79].startX 3537m
param *.uav[79].startY 965m
param *.uav[79].startZ 539m
param *.uav[80].startX 3537m
param *.uav[80].startY 965m
param *.uav[80].startZ 539m
param *.uav[81].startX 312m
param *.uav[81].startY 1262m
param *.uav[81].startZ 540m
param *.uav[82].startX 2185m
param *.uav[82].startY 3026m
param *.uav[82].startZ 778m
param *.uav[83].startX 3537m
param *.uav[83].startY 965m
param *.uav[83].startZ 539m
param *.uav[84].startX 312m
param *.uav[84].startY 1262m
param *.uav[84].startZ 540m
param *.uav[85].startX 2185m
param *.uav[85].startY 3026m
param *.uav[85].startZ 778m
param *.uav[86].startX 3537m
param *.uav[86].startY 965m
param *.uav[86].startZ 539m
param *.uav[87].startX 312m
param *.uav[87].startY 1262m
param *.uav[87].startZ 540m
param *.uav[88].startX 2185m
param *.uav[88].startY 3026m
param *.uav[88].startZ 778m
param *.uav[89].startX 3537m
param *.uav[89].startY 965m
param *.uav[89].startZ 539m
param *.uav[90].startX 3537m
param *.uav[90].startY 965m
param *.uav[90].startZ 539m
param *.uav[91].startX 312m
param *.uav[91].startY 1262m
param *.uav[91].startZ 540m
param *.uav[92].startX 2185m
param *.uav[92].startY 3026m
param *.uav[92].startZ 778m
param *.uav[93].startX 3537m
param *.uav[93].startY 965m
param *.uav[93].startZ 539m
param *.uav[94].startX 312m
param *.uav[94].startY 1262m
param *.uav[94].startZ 540m
param *.uav[95].startX 2185m
param *.uav[95].startY 3026m
param *.uav[95].startZ 778m
param *.uav[96].startX 3537m
param *.uav[96].startY 965m
param *.uav[96].startZ 539m
param *.uav[97].startX 312m
param *.uav[97].startY 1262m
param *.uav[97].startZ 540m
param *.uav[98].startX 2185m
param *.uav[98].startY 3026m
param *.uav[98].startZ 778m
param *.uav[99].startX 3537m
param *.uav[99].startY 965m
param *.uav[99].startZ 539m
param *.osgEarthScene.scene "\"boston.earth\""
param *.playgroundLatitude 42.3558
param *.playgroundLongitude -71.0677
param *.playgroundWidth 400m
param *.playgroundHeight 200m
param *.channelController.connectionColor "\"#0000FF40\""
param *.channelController.showConnections false
param *.uav[*].modelURL "\"quadrocopter.small.obj.15.scale.0,0,90.rot\""
param *.uav[*].labelColor "\"#FF7C00CC\""
param *.uav[*].label2Color "\"#FF7C00EE\""
param *.uav[*].batteryCapacity 5200mAh
param *.uav[*].batteryRemaining uav[index].batteryCapacity
param *.uav[*].predictionQuantile 0.95
param *.uav[*].replacementMethod 2
param *.uav[*].weightedSumWeight 0.5
param *.cs[*].modelURL "\"chargingstation_v1.osgt.2.scale.0,0,0.rot.0,0,-15e-1.trans\""
param *.cs[*].spotsWaiting 999
param *.cs[*].spotsCharging 999
param *.cs[*].chargeEffectivenessPercentage 100
param *.cs[*].nonLinearPhaseStartPercentage 85
param *.cs[*].chargeCurrent 6.0A
param *.cs[*].prioritizeFastCharge true
param *.missionControl.replacementSearchMethod 0
param *.*.timeStep 9s

scalar OsgEarthNet.uav[0] utilizationSecMission 32262.094353412
scalar OsgEarthNet.uav[0] utilizationSecMaintenance 13188.576386395
scalar OsgEarthNet.uav[0] utilizationSecCharge 165427.33651677
scalar OsgEarthNet.uav[0] utilizationSecIdle 48321.99174342
scalar OsgEarthNet.uav[0] utilizationEnergyMission 157911.19335556
scalar OsgEarthNet.uav[0] utilizationEnergyMaintenance 60766.276443481
scalar OsgEarthNet.uav[0] utilizationEnergyCharge 215449.49414062
scalar OsgEarthNet.uav[0] utilizationEnergyOverdrawMission 0
scalar OsgEarthNet.uav[0] utilizationEnergyOverdrawMaintenance 0
scalar OsgEarthNet.uav[0] utilizationCountMissions 47
scalar OsgEarthNet.uav[0] utilizationCountManeuversMission 1009
scalar OsgEarthNet.uav[0] utilizationCountManeuversMaintenance 94
scalar OsgEarthNet.uav[0] utilizationCountChargeState 47
scalar OsgEarthNet.uav[0] utilizationCountOverdrawnAfterMission 0
scalar OsgEarthNet.uav[0] utilizationCountIdleState 47
scalar OsgEarthNet.uav[0] utilizationFail 0
scalar OsgEarthNet.uav[0] simulationTime 259200
scalar OsgEarthNet.uav[1] utilizationSecMission 31676.810972311
scalar OsgEarthNet.uav[1] utilizationSecMaintenance 16831.188027689
scalar OsgEarthNet.uav[1] utilizationSecCharge 183740
scalar OsgEarthNet.uav[1] utilizationSecIdle 26952
scalar OsgEarthNet.uav[1] utilizationEnergyMission 151395.16656111
scalar OsgEarthNet.uav[1] utilizationEnergyMaintenance 80140.916290283
scalar OsgEarthNet.uav[1] utilizationEnergyCharge 230280.29785156
scalar OsgEarthNet.uav[1] utilizationEnergyOverdrawMission 0
scalar OsgEarthNet.uav[1] utilizationEnergyOverdrawMaintenance 0
scalar OsgEarthNet.uav[1] utilizationCountMissions 56
scalar OsgEarthNet.uav[1] utilizationCountManeuversMission 870
scalar OsgEarthNet.uav[1] utilizationCountManeuversMaintenance 112
scalar OsgEarthNet.uav[1] utilizationCountChargeState 56
scalar OsgEarthNet.uav[1] utilizationCountOverdrawnAfterMission 0
scalar OsgEarthNet.uav[1] utilizationCountIdleState 56
scalar OsgEarthNet.uav[1] utilizationFail 0
scalar OsgEarthNet.uav[1] simulationTime 259200
scalar OsgEarthNet.uav[2] utilizationSecMission 29897.063281095
scalar OsgEarthNet.uav[2] utilizationSecMaintenance 13929.782718731
scalar OsgEarthNet.uav[2] utilizationSecCharge 161801.15200017
scalar OsgEarthNet.uav[2] utilizationSecIdle 53572.001
scalar OsgEarthNet.uav[2] utilizationEnergyMission 147074.07505798
scalar OsgEarthNet.uav[2] utilizationEnergyMaintenance 64952.708328247
scalar OsgEarthNet.uav[2] utilizationEnergyCharge 211280.95458984
scalar OsgEarthNet.uav[2] utilizationEnergyOverdrawMission 0
scalar OsgEarthNet.uav[2] utilizationEnergyOverdrawMaintenance 0
scalar OsgEarthNet.uav[2] utilizationCountMissions 46
scalar OsgEarthNet.uav[2] utilizationCountManeuversMission 1086
scalar OsgEarthNet.uav[2] utilizationCountManeuversMaintenance 92
scalar OsgEarthNet.uav[2] utilizationCountChargeState 46
scalar OsgEarthNet.uav[2] utilizationCountOverdrawnAfterMission 0
scalar OsgEarthNet.uav[2] utilizationCountIdleState 45
scalar OsgEarthNet.uav[2] utilizationFail 0
scalar OsgEarthNet.uav[2] simulationTime 259200
scalar OsgEarthNet.uav[3] utilizationSecMission 14857.134717134
scalar OsgEarthNet.uav[3] utilizationSecMaintenance 9054.6376368077
scalar OsgEarthNet.uav[3] utilizationSecCharge 88500
scalar OsgEarthNet.uav[3] utilizationSecIdle 146788.22664606
scalar OsgEarthNet.uav[3] utilizationEnergyMission 71388.357826233
scalar OsgEarthNet.uav[3] utilizationEnergyMaintenance 43069.687694549
scalar OsgEarthNet.uav[3] utilizationEnergyCharge 114718.98388672
scalar OsgEarthNet.uav[3] utilizationEnergyOverdrawMission 0
scalar OsgEarthNet.uav[3] utilizationEnergyOverdrawMaintenance 0
scalar OsgEarthNet.uav[3] utilizationCountMissions 25
scalar OsgEarthNet.uav[3] utilizationCountManeuversMission 452
scalar OsgEarthNet.uav[3] utilizationCountManeuversMaintenance 50
scalar OsgEarthNet.uav[3] utilizationCountChargeState 25
scalar OsgEarthNet.uav[3] utilizationCountOverdrawnAfterMission 0
scalar OsgEarthNet.uav[3] utilizationCountIdleState 26
scalar OsgEarthNet.uav[3] utilizationFail 0
scalar OsgEarthNet.uav[3] simulationTime 259200
scalar OsgEarthNet.uav[4] utilizationSecMission 30106.75861553
scalar OsgEarthNet.uav[4] utilizationSecMaintenance 17261.23438447
scalar OsgEarthNet.uav[4] utilizationSecCharge 180370
scalar OsgEarthNet.uav[4] utilizationSecIdle 31462.006
scalar OsgEarthNet.uav[4] utilizationEnergyMission 145857.43390659
scalar OsgEarthNet.uav[4] utilizationEnergyMaintenance 81177.066711426
scalar OsgEarthNet.uav[4] utilizationEnergyCharge 224717.74072266
scalar OsgEarthNet.uav[4] utilizationEnergyOverdrawMission 0
scalar OsgEarthNet.uav[4] utilizationEnergyOverdrawMaintenance 0
scalar OsgEarthNet.uav[4] utilizationCountMissions 56
scalar OsgEarthNet.uav[4] utilizationCountManeuversMission 859
scalar OsgEarthNet.uav[4] utilizationCountManeuversMaintenance 113
scalar OsgEarthNet.uav[4] utilizationCountChargeState 56
scalar OsgEarthNet.uav[4] utilizationCountOverdrawnAfterMission 0
scalar OsgEarthNet.uav[4] utilizationCountIdleState 56
scalar OsgEarthNet.uav[4] utilizationFail 0
scalar OsgEarthNet.uav[4] simulationTime 259200
scalar OsgEarthNet.uav[5] utilizationSecMission 34704.484426545
scalar OsgEarthNet.uav[5] utilizationSecMaintenance 12975.295496981
scalar OsgEarthNet.uav[5] utilizationSecCharge 172860.99946256
scalar OsgEarthNet.uav[5] utilizationSecIdle 38659.219613916
scalar OsgEarthNet.uav[5] utilizationEnergyMission 169556.80483246
scalar OsgEarthNet.uav[5] utilizationEnergyMaintenance 59366.970287323
scalar OsgEarthNet.uav[5] utilizationEnergyCharge 225064.203125
scalar OsgEarthNet.uav[5] utilizationEnergyOverdrawMission 0
scalar OsgEarthNet.uav[5] utilizationEnergyOverdrawMaintenance 0
scalar OsgEarthNet.uav[5] utilizationCountMissions 49
scalar OsgEarthNet.uav[5] utilizationCountManeuversMission 1041
scalar OsgEarthNet.uav[5] utilizationCountManeuversMaintenance 98
scalar OsgEarthNet.uav[5] utilizationCountChargeState 49
scalar OsgEarthNet.uav[5] utilizationCountOverdrawnAfterMission 0
scalar OsgEarthNet.uav[5] utilizationCountIdleState 49
scalar OsgEarthNet.uav[5] utilizationFail 0
scalar OsgEarthNet.uav[5] simulationTime 259200
scalar OsgEarthNet.uav[6] utilizationSecMission 9865.0012206423
scalar OsgEarthNet.uav[6] utilizationSecMaintenance 5309.4080337866
scalar OsgEarthNet.uav[6] utilizationSecCharge 56450
scalar OsgEarthNet.uav[6] utilizationSecIdle 187575.58974557
scalar OsgEarthNet.uav[6] utilizationEnergyMission 47656.088417053
scalar OsgEarthNet.uav[6] utilizationEnergyMaintenance 25641.777538299
scalar OsgEarthNet.uav[6] utilizationEnergyCharge 72921.996582031
scalar OsgEarthNet.uav[6] utilizationEnergyOverdrawMission 0
scalar OsgEarthNet.uav[6] utilizationEnergyOverdrawMaintenance 0
scalar OsgEarthNet.uav[6] utilizationCountMissions 16
scalar OsgEarthNet.uav[6] utilizationCountManeuversMission 285
scalar OsgEarthNet.uav[6] utilizationCountManeuversMaintenance 32
scalar OsgEarthNet.uav[6] utilizationCountChargeState 16
scalar OsgEarthNet.uav[6] utilizationCountOverdrawnAfterMission 0
scalar OsgEarthNet.uav[6] utilizationCountIdleState 17
scalar OsgEarthNet.uav[6] utilizationFail 0
scalar OsgEarthNet.uav[6] simulationTime 259200
scalar OsgEarthNet.uav[7] utilizationSecMission 32457.792678694
scalar OsgEarthNet.uav[7] utilizationSecMaintenance 15349.427012428
scalar OsgEarthNet.uav[7] utilizationSecCharge 180270
scalar OsgEarthNet.uav[7] utilizationSecIdle 31122.779308878
scalar OsgEarthNet.uav[7] utilizationEnergyMission 153456.46796036
scalar OsgEarthNet.uav[7] utilizationEnergyMaintenance 72515.932037353
scalar OsgEarthNet.uav[7] utilizationEnergyCharge 225937.26904297
scalar OsgEarthNet.uav[7] utilizationEnergyOverdrawMission 0
scalar OsgEarthNet.uav[7] utilizationEnergyOverdrawMaintenance 0
scalar OsgEarthNet.uav[7] utilizationCountMissions 55
scalar OsgEarthNet.uav[7] utilizationCountManeuversMission 798
scalar OsgEarthNet.uav[7] utilizationCountManeuversMaintenance 110
scalar OsgEarthNet.uav[7] utilizationCountChargeState 55
scalar OsgEarthNet.uav[7] utilizationCountOverdrawnAfterMission 0
scalar OsgEarthNet.uav[7] utilizationCountIdleState 53
scalar OsgEarthNet.uav[7] utilizationFail 0
scalar OsgEarthNet.uav[7] simulationTime 259200
scalar OsgEarthNet.uav[8] utilizationSecMission 30783.237108089
scalar OsgEarthNet.uav[8] utilizationSecMaintenance 14136.154288145
scalar OsgEarthNet.uav[8] utilizationSecCharge 165273.15733974
scalar OsgEarthNet.uav[8] utilizationSecIdle 49007.450264031
scalar OsgEarthNet.uav[8] utilizationEnergyMission 150075.82964706
scalar OsgEarthNet.uav[8] utilizationEnergyMaintenance 66151.637054443
scalar OsgEarthNet.uav[8] utilizationEnergyCharge 215966.84716797
scalar OsgEarthNet.uav[8] utilizationEnergyOverdrawMission 0
scalar OsgEarthNet.uav[8] utilizationEnergyOverdrawMaintenance 0
scalar OsgEarthNet.uav[8] utilizationCountMissions 47
scalar OsgEarthNet.uav[8] utilizationCountManeuversMission 1036
scalar OsgEarthNet.uav[8] utilizationCountManeuversMaintenance 94
scalar OsgEarthNet.uav[8] utilizationCountChargeState 47
scalar OsgEarthNet.uav[8] utilizationCountOverdrawnAfterMission 0
scalar OsgEarthNet.uav[8] utilizationCountIdleState 46
scalar OsgEarthNet.uav[8] utilizationFail 0
scalar OsgEarthNet.uav[8] simulationTime 259200
scalar OsgEarthNet.uav[9] utilizationSecMission 15934.118029311
scalar OsgEarthNet.uav[9] utilizationSecMaintenance 12063.878970689
scalar OsgEarthNet.uav[9] utilizationSecCharge 105600
scalar OsgEarthNet.uav[9] utilizationSecIdle 125602.002
scalar OsgEarthNet.uav[9] utilizationEnergyMission 78330.786769867
scalar OsgEarthNet.uav[9] utilizationEnergyMaintenance 57363.758795079
scalar OsgEarthNet.uav[9] utilizationEnergyCharge 136422.79443359
scalar OsgEarthNet.uav[9] utilizationEnergyOverdrawMission 0
scalar OsgEarthNet.uav[9] utilizationEnergyOverdrawMaintenance 0
scalar OsgEarthNet.uav[9] utilizationCountMissions 30
scalar OsgEarthNet.uav[9] utilizationCountManeuversMission 619
scalar OsgEarthNet.uav[9] utilizationCountManeuversMaintenance 61
scalar OsgEarthNet.uav[9] utilizationCountChargeState 30
scalar OsgEarthNet.uav[9] utilizationCountOverdrawnAfterMission 0
scalar OsgEarthNet.uav[9] utilizationCountIdleState 31
scalar OsgEarthNet.uav[9] utilizationFail 0
scalar OsgEarthNet.uav[9] simulationTime 259200
scalar OsgEarthNet.uav[10] utilizationSecMission 15775.884411973
scalar OsgEarthNet.uav[10] utilizationSecMaintenance 10643.321884876
scalar OsgEarthNet.uav[10] utilizationSecCharge 95578.785703151
scalar OsgEarthNet.uav[10] utilizationSecIdle 137202.007
scalar OsgEarthNet.uav[10] utilizationEnergyMission 77477.957748413
scalar OsgEarthNet.uav[10] utilizationEnergyMaintenance 50642.622055054
scalar OsgEarthNet.uav[10] utilizationEnergyCharge 123388.28662109
scalar OsgEarthNet.uav[10] utilizationEnergyOverdrawMission 0
scalar OsgEarthNet.uav[10] utilizationEnergyOverdrawMaintenance 0
scalar OsgEarthNet.uav[10] utilizationCountMissions 28
scalar OsgEarthNet.uav[10] utilizationCountManeuversMission 550
scalar OsgEarthNet.uav[10] utilizationCountManeuversMaintenance 56
scalar OsgEarthNet.uav[10] utilizationCountChargeState 28
scalar OsgEarthNet.uav[10] utilizationCountOverdrawnAfterMission 0
scalar OsgEarthNet.uav[10] utilizationCountIdleState 28
scalar OsgEarthNet.uav[10] utilizationFail 0
scalar OsgEarthNet.uav[10] simulationTime 259200
scalar OsgEarthNet.uav[11] utilizationSecMission 30869.708592251
scalar OsgEarthNet.uav[11] utilizationSecMaintenance 16919.232612555
scalar OsgEarthNet.uav[11] utilizationSecCharge 182670
scalar OsgEarthNet.uav[11] utilizationSecIdle 28741.057795193
scalar OsgEarthNet.uav[11] utilizationEnergyMission 147243.95521164
scalar OsgEarthNet.uav[11] utilizationEnergyMaintenance 80614.890075014
scalar OsgEarthNet.uav[11] utilizationEnergyCharge 228654.16210938
scalar OsgEarthNet.uav[11] utilizationEnergyOverdrawMission 0
scalar OsgEarthNet.uav[11] utilizationEnergyOverdrawMaintenance 0
scalar OsgEarthNet.uav[11] utilizationCountMissions 56
scalar OsgEarthNet.uav[11] utilizationCountManeuversMission 779
scalar OsgEarthNet.uav[11] utilizationCountManeuversMaintenance 113
scalar OsgEarthNet.uav[11] utilizationCountChargeState 56
scalar OsgEarthNet.uav[11] utilizationCountOverdrawnAfterMission 0
scalar OsgEarthNet.uav[11] utilizationCountIdleState 55
scalar OsgEarthNet.uav[11] utilizationFail 0
scalar OsgEarthNet.uav[11] simulationTime 259200
scalar OsgEarthNet.uav[12] utilizationSecMission 33115.406915799
scalar OsgEarthNet.uav[12] utilizationSecMaintenance 13532.592084201
scalar OsgEarthNet.uav[12] utilizationSecCharge 170430
scalar OsgEarthNet.uav[12] utilizationSecIdle 42122
scalar OsgEarthNet.uav[12] utilizationEnergyMission 163438.21243606
scalar OsgEarthNet.uav[12] utilizationEnergyMaintenance 61387.634063721
scalar OsgEarthNet.uav[12] utilizationEnergyCharge 221263.75830078
scalar OsgEarthNet.uav[12] utilizationEnergyOverdrawMission 0
scalar OsgEarthNet.uav[12] utilizationEnergyOverdrawMaintenance 0
scalar OsgEarthNet.uav[12] utilizationCountMissions 48
scalar OsgEarthNet.uav[12] utilizationCountManeuversMission 1120
scalar OsgEarthNet.uav[12] utilizationCountManeuversMaintenance 96
scalar OsgEarthNet.uav[12] utilizationCountChargeState 48
scalar OsgEarthNet.uav[12] utilizationCountOverdrawnAfterMission 0
scalar OsgEarthNet.uav[12] utilizationCountIdleState 47
scalar OsgEarthNet.uav[12] utilizationFail 0
scalar OsgEarthNet.uav[12] simulationTime 259200
scalar OsgEarthNet.uav[13] utilizationSecMission 34840.504909225
scalar OsgEarthNet.uav[13] utilizationSecMaintenance 12779.781780523
scalar OsgEarthNet.uav[13] utilizationSecCharge 173037.71231025
scalar OsgEarthNet.uav[13] utilizationSecIdle 38542
scalar OsgEarthNet.uav[13] utilizationEnergyMission 169278.06924057
scalar OsgEarthNet.uav[13] utilizationEnergyMaintenance 58779.126781464
scalar OsgEarthNet.uav[13] utilizationEnergyCharge 225927.70117188
scalar OsgEarthNet.uav[13] utilizationEnergyOverdrawMission 0
scalar OsgEarthNet.uav[13] utilizationEnergyOverdrawMaintenance 0
scalar OsgEarthNet.uav[13] utilizationCountMissions 49
scalar OsgEarthNet.uav[13] utilizationCountManeuversMission 1107
scalar OsgEarthNet.uav[13] utilizationCountManeuversMaintenance 97
scalar OsgEarthNet.uav[13] utilizationCountChargeState 49
scalar OsgEarthNet.uav[13] utilizationCountOverdrawnAfterMission 0
scalar OsgEarthNet.uav[13] utilizationCountIdleState 48
scalar OsgEarthNet.uav[13] utilizationFail 0
scalar OsgEarthNet.uav[13] simulationTime 259200
scalar OsgEarthNet.uav[14] utilizationSecMission 30428.470843846
scalar OsgEarthNet.uav[14] utilizationSecMaintenance 17569.610786544
scalar OsgEarthNet.uav[14] utilizationSecCharge 181369.90836961
scalar OsgEarthNet.uav[14] utilizationSecIdle 29832.009
scalar OsgEarthNet.uav[14] utilizationEnergyMission 149223.74622726
scalar OsgEarthNet.uav[14] utilizationEnergyMaintenance 82849.6328125
scalar OsgEarthNet.uav[14] utilizationEnergyCharge 227799.51574707
scalar OsgEarthNet.uav[14] utilizationEnergyOverdrawMission 0
scalar OsgEarthNet.uav[14] utilizationEnergyOverdrawMaintenance 0
scalar OsgEarthNet.uav[14] utilizationCountMissions 56
scalar OsgEarthNet.uav[14] utilizationCountManeuversMission 919
scalar OsgEarthNet.uav[14] utilizationCountManeuversMaintenance 112
scalar OsgEarthNet.uav[14] utilizationCountChargeState 56
scalar OsgEarthNet.uav[14] utilizationCountOverdrawnAfterMission 0
scalar OsgEarthNet.uav[14] utilizationCountIdleState 56
scalar OsgEarthNet.uav[14] utilizationFail 0
scalar OsgEarthNet.uav[14] simulationTime 259200
scalar OsgEarthNet.uav[15] utilizationSecMission 32942.66773928
scalar OsgEarthNet.uav[15] utilizationSecMaintenance 14035.32626072
scalar OsgEarthNet.uav[15] utilizationSecCharge 170210
scalar OsgEarthNet.uav[15] utilizationSecIdle 42012.005
scalar OsgEarthNet.uav[15] utilizationEnergyMission 160855.05511842
scalar OsgEarthNet.uav[15] utilizationEnergyMaintenance 65022.809448242
scalar OsgEarthNet.uav[15] utilizationEnergyCharge 220123.19677734
scalar OsgEarthNet.uav[15] utilizationEnergyOverdrawMission 0
scalar OsgEarthNet.uav[15] utilizationEnergyOverdrawMaintenance 0
scalar OsgEarthNet.uav[15] utilizationCountMissions 48
scalar OsgEarthNet.uav[15] utilizationCountManeuversMission 1062
scalar OsgEarthNet.uav[15] utilizationCountManeuversMaintenance 97
scalar OsgEarthNet.uav[15] utilizationCountChargeState 48
scalar OsgEarthNet.uav[15] utilizationCountOverdrawnAfterMission 0
scalar OsgEarthNet.uav[15] utilizationCountIdleState 49
scalar OsgEarthNet.uav[15] utilizationFail 0
scalar OsgEarthNet.uav[15] simulationTime 259200
scalar OsgEarthNet.uav[16] utilizationSecMission 21153.597327613
scalar OsgEarthNet.uav[16] utilizationSecMaintenance 14640.106221787
scalar OsgEarthNet.uav[16] utilizationSecCharge 132554.2954506
scalar OsgEarthNet.uav[16] utilizationSecIdle 90852
scalar OsgEarthNet.uav[16] utilizationEnergyMission 105469.38704681
scalar OsgEarthNet.uav[16] utilizationEnergyMaintenance 69058.550666809
scalar OsgEarthNet.uav[16] utilizationEnergyCharge 171910.03198242
scalar OsgEarthNet.uav[16] utilizationEnergyOverdrawMission 0
scalar OsgEarthNet.uav[16] utilizationEnergyOverdrawMaintenance 0
scalar OsgEarthNet.uav[16] utilizationCountMissions 38
scalar OsgEarthNet.uav[16] utilizationCountManeuversMission 773
scalar OsgEarthNet.uav[16] utilizationCountManeuversMaintenance 75
scalar OsgEarthNet.uav[16] utilizationCountChargeState 38
scalar OsgEarthNet.uav[16] utilizationCountOverdrawnAfterMission 0
scalar OsgEarthNet.uav[16] utilizationCountIdleState 38
scalar OsgEarthNet.uav[16] utilizationFail 0
scalar OsgEarthNet.uav[16] simulationTime 259200
scalar OsgEarthNet.uav[17] utilizationSecMission 29258.31193444
scalar OsgEarthNet.uav[17] utilizationSecMaintenance 18339.819156943
scalar OsgEarthNet.uav[17] utilizationSecCharge 183983.51430574
scalar OsgEarthNet.uav[17] utilizationSecIdle 27618.353602879
scalar OsgEarthNet.uav[17] utilizationEnergyMission 139541.28277206
scalar OsgEarthNet.uav[17] utilizationEnergyMaintenance 85894.142196655
scalar OsgEarthNet.uav[17] utilizationEnergyCharge 226579.07128906
scalar OsgEarthNet.uav[17] utilizationEnergyOverdrawMission 0
scalar OsgEarthNet.uav[17] utilizationEnergyOverdrawMaintenance 0
scalar OsgEarthNet.uav[17] utilizationCountMissions 59
scalar OsgEarthNet.uav[17] utilizationCountManeuversMission 796
scalar OsgEarthNet.uav[17] utilizationCountManeuversMaintenance 118
scalar OsgEarthNet.uav[17] utilizationCountChargeState 59
scalar OsgEarthNet.uav[17] utilizationCountOverdrawnAfterMission 0
scalar OsgEarthNet.uav[17] utilizationCountIdleState 59
scalar OsgEarthNet.uav[17] utilizationFail 0
scalar OsgEarthNet.uav[17] simulationTime 259200
scalar OsgEarthNet.uav[18] utilizationSecMission 32746.125985262
scalar OsgEarthNet.uav[18] utilizationSecMaintenance 13818.255111162
scalar OsgEarthNet.uav[18] utilizationSecCharge 173400
scalar OsgEarthNet.uav[18] utilizationSecIdle 39235.617903575
scalar OsgEarthNet.uav[18] utilizationEnergyMission 164549.00852966
scalar OsgEarthNet.uav[18] utilizationEnergyMaintenance 63292.838558197
scalar OsgEarthNet.uav[18] utilizationEnergyCharge 225627.10351562
scalar OsgEarthNet.uav[18] utilizationEnergyOverdrawMission 0
scalar OsgEarthNet.uav[18] utilizationEnergyOverdrawMaintenance 0
scalar OsgEarthNet.uav[18] utilizationCountMissions 49
scalar OsgEarthNet.uav[18] utilizationCountManeuversMission 1234
scalar OsgEarthNet.uav[18] utilizationCountManeuversMaintenance 98
scalar OsgEarthNet.uav[18] utilizationCountChargeState 49
scalar OsgEarthNet.uav[18] utilizationCountOverdrawnAfterMission 0
scalar OsgEarthNet.uav[18] utilizationCountIdleState 49
scalar OsgEarthNet.uav[18] utilizationFail 0
scalar OsgEarthNet.uav[18] simulationTime 259200
scalar OsgEarthNet.uav[19] utilizationSecMission 17597.243792213
scalar OsgEarthNet.uav[19] utilizationSecMaintenance 11289.064514801
scalar OsgEarthNet.uav[19] utilizationSecCharge 107301.67769299
scalar OsgEarthNet.uav[19] utilizationSecIdle 123012.013
scalar OsgEarthNet.uav[19] utilizationEnergyMission 85348.951389313
scalar OsgEarthNet.uav[19] utilizationEnergyMaintenance 54060.284137726
scalar OsgEarthNet.uav[19] utilizationEnergyCharge 139041.67822266
scalar OsgEarthNet.uav[19] utilizationEnergyOverdrawMission 0
scalar OsgEarthNet.uav[19] utilizationEnergyOverdrawMaintenance 0
scalar OsgEarthNet.uav[19] utilizationCountMissions 31
scalar OsgEarthNet.uav[19] utilizationCountManeuversMission 572
scalar OsgEarthNet.uav[19] utilizationCountManeuversMaintenance 62
scalar OsgEarthNet.uav[19] utilizationCountChargeState 31
scalar OsgEarthNet.uav[19] utilizationCountOverdrawnAfterMission 0
scalar OsgEarthNet.uav[19] utilizationCountIdleState 31
scalar OsgEarthNet.uav[19] utilizationFail 0
scalar OsgEarthNet.uav[19] simulationTime 259200
scalar OsgEarthNet.uav[20] utilizationSecMission 19881.619860275
scalar OsgEarthNet.uav[20] utilizationSecMaintenance 9519.3772183504
scalar OsgEarthNet.uav[20] utilizationSecCharge 108490
scalar OsgEarthNet.uav[20] utilizationSecIdle 121309.00192137
scalar OsgEarthNet.uav[20] utilizationEnergyMission 94503.421642303
scalar OsgEarthNet.uav[20] utilizationEnergyMaintenance 45036.333740234
scalar OsgEarthNet.uav[20] utilizationEnergyCharge 139528.62646484
scalar OsgEarthNet.uav[20] utilizationEnergyOverdrawMission 0
scalar OsgEarthNet.uav[20] utilizationEnergyOverdrawMaintenance 0
scalar OsgEarthNet.uav[20] utilizationCountMissions 31
scalar OsgEarthNet.uav[20] utilizationCountManeuversMission 504
scalar OsgEarthNet.uav[20] utilizationCountManeuversMaintenance 62
scalar OsgEarthNet.uav[20] utilizationCountChargeState 31
scalar OsgEarthNet.uav[20] utilizationCountOverdrawnAfterMission 0
scalar OsgEarthNet.uav[20] utilizationCountIdleState 32
scalar OsgEarthNet.uav[20] utilizationFail 0
scalar OsgEarthNet.uav[20] simulationTime 259200
scalar OsgEarthNet.uav[21] utilizationSecMission 30930.682727808
scalar OsgEarthNet.uav[21] utilizationSecMaintenance 17134.513562962
scalar OsgEarthNet.uav[21] utilizationSecCharge 182850.09701019
scalar OsgEarthNet.uav[21] utilizationSecIdle 28284.705699036
scalar OsgEarthNet.uav[21] utilizationEnergyMission 149771.58319855
scalar OsgEarthNet.uav[21] utilizationEnergyMaintenance 81132.929740906
scalar OsgEarthNet.uav[21] utilizationEnergyCharge 228691.70654297
scalar OsgEarthNet.uav[21] utilizationEnergyOverdrawMission 0
scalar OsgEarthNet.uav[21] utilizationEnergyOverdrawMaintenance 0
scalar OsgEarthNet.uav[21] utilizationCountMissions 57
scalar OsgEarthNet.uav[21] utilizationCountManeuversMission 856
scalar OsgEarthNet.uav[21] utilizationCountManeuversMaintenance 114
scalar OsgEarthNet.uav[21] utilizationCountChargeState 57
scalar OsgEarthNet.uav[21] utilizationCountOverdrawnAfterMission 0
scalar OsgEarthNet.uav[21] utilizationCountIdleState 57
scalar OsgEarthNet.uav[21] utilizationFail 0
scalar OsgEarthNet.uav[21] simulationTime 259200
scalar OsgEarthNet.uav[22] utilizationSecMission 33209.657223959
scalar OsgEarthNet.uav[22] utilizationSecMaintenance 13939.405579891
scalar OsgEarthNet.uav[22] utilizationSecCharge 173100
scalar OsgEarthNet.uav[22] utilizationSecIdle 38950.93619615
scalar OsgEarthNet.uav[22] utilizationEnergyMission 160886.24251175
scalar OsgEarthNet.uav[22] utilizationEnergyMaintenance 63073.09469223
scalar OsgEarthNet.uav[22] utilizationEnergyCharge 224614.66699219
scalar OsgEarthNet.uav[22] utilizationEnergyOverdrawMission 0
scalar OsgEarthNet.uav[22] utilizationEnergyOverdrawMaintenance 0
scalar OsgEarthNet.uav[22] utilizationCountMissions 49
scalar OsgEarthNet.uav[22] utilizationCountManeuversMission 1000
scalar OsgEarthNet.uav[22] utilizationCountManeuversMaintenance 98
scalar OsgEarthNet.uav[22] utilizationCountChargeState 49
scalar OsgEarthNet.uav[22] utilizationCountOverdrawnAfterMission 0
scalar OsgEarthNet.uav[22] utilizationCountIdleState 49
scalar OsgEarthNet.uav[22] utilizationFail 0
scalar OsgEarthNet.uav[22] simulationTime 259200
scalar OsgEarthNet.uav[23] utilizationSecMission 19459.744402534
scalar OsgEarthNet.uav[23] utilizationSecMaintenance 10467.443529433
scalar OsgEarthNet.uav[23] utilizationSecCharge 110415.66203733
scalar OsgEarthNet.uav[23] utilizationSecIdle 118857.1490307
scalar OsgEarthNet.uav[23] utilizationEnergyMission 93771.634662628
scalar OsgEarthNet.uav[23] utilizationEnergyMaintenance 50076.262401581
scalar OsgEarthNet.uav[23] utilizationEnergyCharge 143101.40576172
scalar OsgEarthNet.uav[23] utilizationEnergyOverdrawMission 0
scalar OsgEarthNet.uav[23] utilizationEnergyOverdrawMaintenance 0
scalar OsgEarthNet.uav[23] utilizationCountMissions 32
scalar OsgEarthNet.uav[23] utilizationCountManeuversMission 561
scalar OsgEarthNet.uav[23] utilizationCountManeuversMaintenance 64
scalar OsgEarthNet.uav[23] utilizationCountChargeState 32
scalar OsgEarthNet.uav[23] utilizationCountOverdrawnAfterMission 0
scalar OsgEarthNet.uav[23] utilizationCountIdleState 32
scalar OsgEarthNet.uav[23] utilizationFail 0
scalar OsgEarthNet.uav[23] simulationTime 259200
scalar OsgEarthNet.uav[24] utilizationSecMission 29702.558903257
scalar OsgEarthNet.uav[24] utilizationSecMaintenance 18689.598256071
scalar OsgEarthNet.uav[24] utilizationSecCharge 183301.83660077
scalar OsgEarthNet.uav[24] utilizationSecIdle 27506.005239897
scalar OsgEarthNet.uav[24] utilizationEnergyMission 144142.44543457
scalar OsgEarthNet.uav[24] utilizationEnergyMaintenance 89173.655906677
scalar OsgEarthNet.uav[24] utilizationEnergyCharge 229908.33349609
scalar OsgEarthNet.uav[24] utilizationEnergyOverdrawMission 0
scalar OsgEarthNet.uav[24] utilizationEnergyOverdrawMaintenance 0
scalar OsgEarthNet.uav[24] utilizationCountMissions 57
scalar OsgEarthNet.uav[24] utilizationCountManeuversMission 928
scalar OsgEarthNet.uav[24] utilizationCountManeuversMaintenance 114
scalar OsgEarthNet.uav[24] utilizationCountChargeState 57
scalar OsgEarthNet.uav[24] utilizationCountOverdrawnAfterMission 0
scalar OsgEarthNet.uav[24] utilizationCountIdleState 57
scalar OsgEarthNet.uav[24] utilizationFail 0
scalar OsgEarthNet.uav[24] simulationTime 259200
scalar OsgEarthNet.uav[25] utilizationSecMission 32201.113461221
scalar OsgEarthNet.uav[25] utilizationSecMaintenance 14679.710428368
scalar OsgEarthNet.uav[25] utilizationSecCharge 170180
scalar OsgEarthNet.uav[25] utilizationSecIdle 42139.175110411
scalar OsgEarthNet.uav[25] utilizationEnergyMission 160179.91128159
scalar OsgEarthNet.uav[25] utilizationEnergyMaintenance 67871.276157323
scalar OsgEarthNet.uav[25] utilizationEnergyCharge 220845.79882812
scalar OsgEarthNet.uav[25] utilizationEnergyOverdrawMission 0
scalar OsgEarthNet.uav[25] utilizationEnergyOverdrawMaintenance 0
scalar OsgEarthNet.uav[25] utilizationCountMissions 49
scalar OsgEarthNet.uav[25] utilizationCountManeuversMission 1207
scalar OsgEarthNet.uav[25] utilizationCountManeuversMaintenance 98
scalar OsgEarthNet.uav[25] utilizationCountChargeState 48
scalar OsgEarthNet.uav[25] utilizationCountOverdrawnAfterMission 0
scalar OsgEarthNet.uav[25] utilizationCountIdleState 48
scalar OsgEarthNet.uav[25] utilizationFail 0
scalar OsgEarthNet.uav[25] simulationTime 259200
scalar OsgEarthNet.uav[26] utilizationSecMission 18168.126983544
scalar OsgEarthNet.uav[26] utilizationSecMaintenance 10914.359676361
scalar OsgEarthNet.uav[26] utilizationSecCharge 109250
scalar OsgEarthNet.uav[26] utilizationSecIdle 120867.5123401
scalar OsgEarthNet.uav[26] utilizationEnergyMission 88610.101764679
scalar OsgEarthNet.uav[26] utilizationEnergyMaintenance 52056.023975372
scalar OsgEarthNet.uav[26] utilizationEnergyCharge 140930.71337891
scalar OsgEarthNet.uav[26] utilizationEnergyOverdrawMission 0
scalar OsgEarthNet.uav[26] utilizationEnergyOverdrawMaintenance 0
scalar OsgEarthNet.uav[26] utilizationCountMissions 31
scalar OsgEarthNet.uav[26] utilizationCountManeuversMission 570
scalar OsgEarthNet.uav[26] utilizationCountManeuversMaintenance 62
scalar OsgEarthNet.uav[26] utilizationCountChargeState 31
scalar OsgEarthNet.uav[26] utilizationCountOverdrawnAfterMission 0
scalar OsgEarthNet.uav[26] utilizationCountIdleState 32
scalar OsgEarthNet.uav[26] utilizationFail 0
scalar OsgEarthNet.uav[26] simulationTime 259200
scalar OsgEarthNet.uav[27] utilizationSecMission 31237.573946911
scalar OsgEarthNet.uav[27] utilizationSecMaintenance 16832.836740234
scalar OsgEarthNet.uav[27] utilizationSecCharge 182852.1784215
scalar OsgEarthNet.uav[27] utilizationSecIdle 28277.40989135
scalar OsgEarthNet.uav[27] utilizationEnergyMission 149185.31681824
scalar OsgEarthNet.uav[27] utilizationEnergyMaintenance 80776.243846893
scalar OsgEarthNet.uav[27] utilizationEnergyCharge 230167.26879883
scalar OsgEarthNet.uav[27] utilizationEnergyOverdrawMission 0
scalar OsgEarthNet.uav[27] utilizationEnergyOverdrawMaintenance 0
scalar OsgEarthNet.uav[27] utilizationCountMissions 56
scalar OsgEarthNet.uav[27] utilizationCountManeuversMission 829
scalar OsgEarthNet.uav[27] utilizationCountManeuversMaintenance 112
scalar OsgEarthNet.uav[27] utilizationCountChargeState 56
scalar OsgEarthNet.uav[27] utilizationCountOverdrawnAfterMission 0
scalar OsgEarthNet.uav[27] utilizationCountIdleState 53
scalar OsgEarthNet.uav[27] utilizationFail 0
scalar OsgEarthNet.uav[27] simulationTime 259200
scalar OsgEarthNet.uav[28] utilizationSecMission 33872.281270838
scalar OsgEarthNet.uav[28] utilizationSecMaintenance 12781.377494764
scalar OsgEarthNet.uav[28] utilizationSecCharge 171120
scalar OsgEarthNet.uav[28] utilizationSecIdle 41426.340234397
scalar OsgEarthNet.uav[28] utilizationEnergyMission 163263.78053284
scalar OsgEarthNet.uav[28] utilizationEnergyMaintenance 58410.590087891
scalar OsgEarthNet.uav[28] utilizationEnergyCharge 222204.98388672
scalar OsgEarthNet.uav[28] utilizationEnergyOverdrawMission 0
scalar OsgEarthNet.uav[28] utilizationEnergyOverdrawMaintenance 0
scalar OsgEarthNet.uav[28] utilizationCountMissions 48
scalar OsgEarthNet.uav[28] utilizationCountManeuversMission 1116
scalar OsgEarthNet.uav[28] utilizationCountManeuversMaintenance 96
scalar OsgEarthNet.uav[28] utilizationCountChargeState 48
scalar OsgEarthNet.uav[28] utilizationCountOverdrawnAfterMission 0
scalar OsgEarthNet.uav[28] utilizationCountIdleState 48
scalar OsgEarthNet.uav[28] utilizationFail 0
scalar OsgEarthNet.uav[28] simulationTime 259200
scalar OsgEarthNet.uav[29] utilizationSecMission 19917.134717134
scalar OsgEarthNet.uav[29] utilizationSecMaintenance 13266.852939397
scalar OsgEarthNet.uav[29] utilizationSecCharge 123800
scalar OsgEarthNet.uav[29] utilizationSecIdle 102216.01134347
scalar OsgEarthNet.uav[29] utilizationEnergyMission 97174.152671814
scalar OsgEarthNet.uav[29] utilizationEnergyMaintenance 62893.112705231
scalar OsgEarthNet.uav[29] utilizationEnergyCharge 159966.22558594
scalar OsgEarthNet.uav[29] utilizationEnergyOverdrawMission 0
scalar OsgEarthNet.uav[29] utilizationEnergyOverdrawMaintenance 0
scalar OsgEarthNet.uav[29] utilizationCountMissions 35
scalar OsgEarthNet.uav[29] utilizationCountManeuversMission 705
scalar OsgEarthNet.uav[29] utilizationCountManeuversMaintenance 70
scalar OsgEarthNet.uav[29] utilizationCountChargeState 35
scalar OsgEarthNet.uav[29] utilizationCountOverdrawnAfterMission 0
scalar OsgEarthNet.uav[29] utilizationCountIdleState 36
scalar OsgEarthNet.uav[29] utilizationFail 0
scalar OsgEarthNet.uav[29] simulationTime 259200
scalar OsgEarthNet.uav[30] utilizationSecMission 18045.626373223
scalar OsgEarthNet.uav[30] utilizationSecMaintenance 12738.837874944
scalar OsgEarthNet.uav[30] utilizationSecCharge 113463.51975183
scalar OsgEarthNet.uav[30] utilizationSecIdle 114952.015
scalar OsgEarthNet.uav[30] utilizationEnergyMission 88177.683422089
scalar OsgEarthNet.uav[30] utilizationEnergyMaintenance 60590.00736618
scalar OsgEarthNet.uav[30] utilizationEnergyCharge 147104.64575195
scalar OsgEarthNet.uav[30] utilizationEnergyOverdrawMission 0
scalar OsgEarthNet.uav[30] utilizationEnergyOverdrawMaintenance 0
scalar OsgEarthNet.uav[30] utilizationCountMissions 33
scalar OsgEarthNet.uav[30] utilizationCountManeuversMission 668
scalar OsgEarthNet.uav[30] utilizationCountManeuversMaintenance 66
scalar OsgEarthNet.uav[30] utilizationCountChargeState 33
scalar OsgEarthNet.uav[30] utilizationCountOverdrawnAfterMission 0
scalar OsgEarthNet.uav[30] utilizationCountIdleState 33
scalar OsgEarthNet.uav[30] utilizationFail 0
scalar OsgEarthNet.uav[30] simulationTime 259200
scalar OsgEarthNet.uav[31] utilizationSecMission 30967.705458852
scalar OsgEarthNet.uav[31] utilizationSecMaintenance 16613.787595493
scalar OsgEarthNet.uav[31] utilizationSecCharge 179926.50094565
scalar OsgEarthNet.uav[31] utilizationSecIdle 31692.005
scalar OsgEarthNet.uav[31] utilizationEnergyMission 151601.44346237
scalar OsgEarthNet.uav[31] utilizationEnergyMaintenance 77390.786891937
scalar OsgEarthNet.uav[31] utilizationEnergyCharge 229711.87963867
scalar OsgEarthNet.uav[31] utilizationEnergyOverdrawMission 0
scalar OsgEarthNet.uav[31] utilizationEnergyOverdrawMaintenance 0
scalar OsgEarthNet.uav[31] utilizationCountMissions 53
scalar OsgEarthNet.uav[31] utilizationCountManeuversMission 1080
scalar OsgEarthNet.uav[31] utilizationCountManeuversMaintenance 106
scalar OsgEarthNet.uav[31] utilizationCountChargeState 53
scalar OsgEarthNet.uav[31] utilizationCountOverdrawnAfterMission 0
scalar OsgEarthNet.uav[31] utilizationCountIdleState 53
scalar OsgEarthNet.uav[31] utilizationFail 0
scalar OsgEarthNet.uav[31] simulationTime 259200
scalar OsgEarthNet.uav[32] utilizationSecMission 32527.918986082
scalar OsgEarthNet.uav[32] utilizationSecMaintenance 15285.904612484
scalar OsgEarthNet.uav[32] utilizationSecCharge 174596.71705334
scalar OsgEarthNet.uav[32] utilizationSecIdle 36789.458348089
scalar OsgEarthNet.uav[32] utilizationEnergyMission 158514.56263733
scalar OsgEarthNet.uav[32] utilizationEnergyMaintenance 70655.291854858
scalar OsgEarthNet.uav[32] utilizationEnergyCharge 226256.88330078
scalar OsgEarthNet.uav[32] utilizationEnergyOverdrawMission 0
scalar OsgEarthNet.uav[32] utilizationEnergyOverdrawMaintenance 0
scalar OsgEarthNet.uav[32] utilizationCountMissions 50
scalar OsgEarthNet.uav[32] utilizationCountManeuversMission 1094
scalar OsgEarthNet.uav[32] utilizationCountManeuversMaintenance 100
scalar OsgEarthNet.uav[32] utilizationCountChargeState 50
scalar OsgEarthNet.uav[32] utilizationCountOverdrawnAfterMission 0
scalar OsgEarthNet.uav[32] utilizationCountIdleState 49
scalar OsgEarthNet.uav[32] utilizationFail 0
scalar OsgEarthNet.uav[32] simulationTime 259200
scalar OsgEarthNet.uav[33] utilizationSecMission 21040.885632615
scalar OsgEarthNet.uav[33] utilizationSecMaintenance 11391.346754779
scalar OsgEarthNet.uav[33] utilizationSecCharge 116811.86988629
scalar OsgEarthNet.uav[33] utilizationSecIdle 109955.89672631
scalar OsgEarthNet.uav[33] utilizationEnergyMission 100242.37569809
scalar OsgEarthNet.uav[33] utilizationEnergyMaintenance 53815.361820221
scalar OsgEarthNet.uav[33] utilizationEnergyCharge 151051.54907227
scalar OsgEarthNet.uav[33] utilizationEnergyOverdrawMission 0
scalar OsgEarthNet.uav[33] utilizationEnergyOverdrawMaintenance 0
scalar OsgEarthNet.uav[33] utilizationCountMissions 34
scalar OsgEarthNet.uav[33] utilizationCountManeuversMission 605
scalar OsgEarthNet.uav[33] utilizationCountManeuversMaintenance 68
scalar OsgEarthNet.uav[33] utilizationCountChargeState 34
scalar OsgEarthNet.uav[33] utilizationCountOverdrawnAfterMission 0
scalar OsgEarthNet.uav[33] utilizationCountIdleState 34
scalar OsgEarthNet.uav[33] utilizationFail 0
scalar OsgEarthNet.uav[33] simulationTime 259200
scalar OsgEarthNet.uav[34] utilizationSecMission 34523.104555476
scalar OsgEarthNet.uav[34] utilizationSecMaintenance 13021.451355833
scalar OsgEarthNet.uav[34] utilizationSecCharge 171030
scalar OsgEarthNet.uav[34] utilizationSecIdle 40625.443088691
scalar OsgEarthNet.uav[34] utilizationEnergyMission 164762.04013824
scalar OsgEarthNet.uav[34] utilizationEnergyMaintenance 61191.741696369
scalar OsgEarthNet.uav[34] utilizationEnergyCharge 221699.3046875
scalar OsgEarthNet.uav[34] utilizationEnergyOverdrawMission 0
scalar OsgEarthNet.uav[34] utilizationEnergyOverdrawMaintenance 0
scalar OsgEarthNet.uav[34] utilizationCountMissions 49
scalar OsgEarthNet.uav[34] utilizationCountManeuversMission 1056
scalar OsgEarthNet.uav[34] utilizationCountManeuversMaintenance 98
scalar OsgEarthNet.uav[34] utilizationCountChargeState 48
scalar OsgEarthNet.uav[34] utilizationCountOverdrawnAfterMission 0
scalar OsgEarthNet.uav[34] utilizationCountIdleState 49
scalar OsgEarthNet.uav[34] utilizationFail 0
scalar OsgEarthNet.uav[34] simulationTime 259200
scalar OsgEarthNet.uav[35] utilizationSecMission 33711.167193127
scalar OsgEarthNet.uav[35] utilizationSecMaintenance 13617.424950312
scalar OsgEarthNet.uav[35] utilizationSecCharge 172770
scalar OsgEarthNet.uav[35] utilizationSecIdle 39101.406856561
scalar OsgEarthNet.uav[35] utilizationEnergyMission 161885.90430832
scalar OsgEarthNet.uav[35] utilizationEnergyMaintenance 61960.027458191
scalar OsgEarthNet.uav[35] utilizationEnergyCharge 224383.72998047
scalar OsgEarthNet.uav[35] utilizationEnergyOverdrawMission 0
scalar OsgEarthNet.uav[35] utilizationEnergyOverdrawMaintenance 0
scalar OsgEarthNet.uav[35] utilizationCountMissions 49
scalar OsgEarthNet.uav[35] utilizationCountManeuversMission 1060
scalar OsgEarthNet.uav[35] utilizationCountManeuversMaintenance 98
scalar OsgEarthNet.uav[35] utilizationCountChargeState 49
scalar OsgEarthNet.uav[35] utilizationCountOverdrawnAfterMission 0
scalar OsgEarthNet.uav[35] utilizationCountIdleState 48
scalar OsgEarthNet.uav[35] utilizationFail 0
scalar OsgEarthNet.uav[35] simulationTime 259200
scalar OsgEarthNet.uav[36] utilizationSecMission 20573.863294017
scalar OsgEarthNet.uav[36] utilizationSecMaintenance 15164.126705983
scalar OsgEarthNet.uav[36] utilizationSecCharge 132490
scalar OsgEarthNet.uav[36] utilizationSecIdle 90972.009
scalar OsgEarthNet.uav[36] utilizationEnergyMission 99264.524155414
scalar OsgEarthNet.uav[36] utilizationEnergyMaintenance 71984.156089782
scalar OsgEarthNet.uav[36] utilizationEnergyCharge 170025.62353516
scalar OsgEarthNet.uav[36] utilizationEnergyOverdrawMission 0
scalar OsgEarthNet.uav[36] utilizationEnergyOverdrawMaintenance 0
scalar OsgEarthNet.uav[36] utilizationCountMissions 38
scalar OsgEarthNet.uav[36] utilizationCountManeuversMission 793
scalar OsgEarthNet.uav[36] utilizationCountManeuversMaintenance 77
scalar OsgEarthNet.uav[36] utilizationCountChargeState 38
scalar OsgEarthNet.uav[36] utilizationCountOverdrawnAfterMission 0
scalar OsgEarthNet.uav[36] utilizationCountIdleState 39
scalar OsgEarthNet.uav[36] utilizationFail 0
scalar OsgEarthNet.uav[36] simulationTime 259200
scalar OsgEarthNet.uav[37] utilizationSecMission 29537.967099838
scalar OsgEarthNet.uav[37] utilizationSecMaintenance 18580.2493165
scalar OsgEarthNet.uav[37] utilizationSecCharge 185051.76230952
scalar OsgEarthNet.uav[37] utilizationSecIdle 26030.020274145
scalar OsgEarthNet.uav[37] utilizationEnergyMission 143158.68855667
scalar OsgEarthNet.uav[37] utilizationEnergyMaintenance 88432.434329987
scalar OsgEarthNet.uav[37] utilizationEnergyCharge 230952.35375977
scalar OsgEarthNet.uav[37] utilizationEnergyOverdrawMission 0
scalar OsgEarthNet.uav[37] utilizationEnergyOverdrawMaintenance 0
scalar OsgEarthNet.uav[37] utilizationCountMissions 58
scalar OsgEarthNet.uav[37] utilizationCountManeuversMission 908
scalar OsgEarthNet.uav[37] utilizationCountManeuversMaintenance 116
scalar OsgEarthNet.uav[37] utilizationCountChargeState 58
scalar OsgEarthNet.uav[37] utilizationCountOverdrawnAfterMission 0
scalar OsgEarthNet.uav[37] utilizationCountIdleState 58
scalar OsgEarthNet.uav[37] utilizationFail 0
scalar OsgEarthNet.uav[37] simulationTime 259200
scalar OsgEarthNet.uav[38] utilizationSecMission 34369.217058494
scalar OsgEarthNet.uav[38] utilizationSecMaintenance 13464.497175842
scalar OsgEarthNet.uav[38] utilizationSecCharge 174564.28476566
scalar OsgEarthNet.uav[38] utilizationSecIdle 36802
scalar OsgEarthNet.uav[38] utilizationEnergyMission 166310.9827565
scalar OsgEarthNet.uav[38] utilizationEnergyMaintenance 61579.137187958
scalar OsgEarthNet.uav[38] utilizationEnergyCharge 227481.64404297
scalar OsgEarthNet.uav[38] utilizationEnergyOverdrawMission 0
scalar OsgEarthNet.uav[38] utilizationEnergyOverdrawMaintenance 0
scalar OsgEarthNet.uav[38] utilizationCountMissions 49
scalar OsgEarthNet.uav[38] utilizationCountManeuversMission 1063
scalar OsgEarthNet.uav[38] utilizationCountManeuversMaintenance 97
scalar OsgEarthNet.uav[38] utilizationCountChargeState 49
scalar OsgEarthNet.uav[38] utilizationCountOverdrawnAfterMission 0
scalar OsgEarthNet.uav[38] utilizationCountIdleState 48
scalar OsgEarthNet.uav[38] utilizationFail 0
scalar OsgEarthNet.uav[38] simulationTime 259200
scalar OsgEarthNet.uav[39] utilizationSecMission 17295.259259393
scalar OsgEarthNet.uav[39] utilizationSecMaintenance 12609.926987019
scalar OsgEarthNet.uav[39] utilizationSecCharge 113202.79675359
scalar OsgEarthNet.uav[39] utilizationSecIdle 116092.016
scalar OsgEarthNet.uav[39] utilizationEnergyMission 86688.940441132
scalar OsgEarthNet.uav[39] utilizationEnergyMaintenance 59901.361339569
scalar OsgEarthNet.uav[39] utilizationEnergyCharge 146305.11962891
scalar OsgEarthNet.uav[39] utilizationEnergyOverdrawMission 0
scalar OsgEarthNet.uav[39] utilizationEnergyOverdrawMaintenance 0
scalar OsgEarthNet.uav[39] utilizationCountMissions 32
scalar OsgEarthNet.uav[39] utilizationCountManeuversMission 652
scalar OsgEarthNet.uav[39] utilizationCountManeuversMaintenance 64
scalar OsgEarthNet.uav[39] utilizationCountChargeState 32
scalar OsgEarthNet.uav[39] utilizationCountOverdrawnAfterMission 0
scalar OsgEarthNet.uav[39] utilizationCountIdleState 32
scalar OsgEarthNet.uav[39] utilizationFail 0
scalar OsgEarthNet.uav[39] simulationTime 259200
scalar OsgEarthNet.uav[40] utilizationSecMission 32876.443552914
scalar OsgEarthNet.uav[40] utilizationSecMaintenance 13728.658479138
scalar OsgEarthNet.uav[40] utilizationSecCharge 169530.73318771
scalar OsgEarthNet.uav[40] utilizationSecIdle 43064.163780236
scalar OsgEarthNet.uav[40] utilizationEnergyMission 157543.06825638
scalar OsgEarthNet.uav[40] utilizationEnergyMaintenance 63448.966239929
scalar OsgEarthNet.uav[40] utilizationEnergyCharge 218803.05010986
scalar OsgEarthNet.uav[40] utilizationEnergyOverdrawMission 0
scalar OsgEarthNet.uav[40] utilizationEnergyOverdrawMaintenance 0
scalar OsgEarthNet.uav[40] utilizationCountMissions 49
scalar OsgEarthNet.uav[40] utilizationCountManeuversMission 1067
scalar OsgEarthNet.uav[40] utilizationCountManeuversMaintenance 98
scalar OsgEarthNet.uav[40] utilizationCountChargeState 49
scalar OsgEarthNet.uav[40] utilizationCountOverdrawnAfterMission 0
scalar OsgEarthNet.uav[40] utilizationCountIdleState 49
scalar OsgEarthNet.uav[40] utilizationFail 0
scalar OsgEarthNet.uav[40] simulationTime 259200
scalar OsgEarthNet.uav[41] utilizationSecMission 29166.073131531
scalar OsgEarthNet.uav[41] utilizationSecMaintenance 18213.26439361
scalar OsgEarthNet.uav[41] utilizationSecCharge 182718.65347486
scalar OsgEarthNet.uav[41] utilizationSecIdle 29102.008
scalar OsgEarthNet.uav[41] utilizationEnergyMission 141898.71583939
scalar OsgEarthNet.uav[41] utilizationEnergyMaintenance 86619.874736786
scalar OsgEarthNet.uav[41] utilizationEnergyCharge 228097.20703125
scalar OsgEarthNet.uav[41] utilizationEnergyOverdrawMission 0
scalar OsgEarthNet.uav[41] utilizationEnergyOverdrawMaintenance 0
scalar OsgEarthNet.uav[41] utilizationCountMissions 57
scalar OsgEarthNet.uav[41] utilizationCountManeuversMission 912
scalar OsgEarthNet.uav[41] utilizationCountManeuversMaintenance 114
scalar OsgEarthNet.uav[41] utilizationCountChargeState 57
scalar OsgEarthNet.uav[41] utilizationCountOverdrawnAfterMission 0
scalar OsgEarthNet.uav[41] utilizationCountIdleState 57
scalar OsgEarthNet.uav[41] utilizationFail 0
scalar OsgEarthNet.uav[41] simulationTime 259200
scalar OsgEarthNet.uav[42] utilizationSecMission 33234.595948153
scalar OsgEarthNet.uav[42] utilizationSecMaintenance 13940.456745066
scalar OsgEarthNet.uav[42] utilizationSecCharge 171931.42097555
scalar OsgEarthNet.uav[42] utilizationSecIdle 40093.525331232
scalar OsgEarthNet.uav[42] utilizationEnergyMission 163040.14443207
scalar OsgEarthNet.uav[42] utilizationEnergyMaintenance 64261.714916229
scalar OsgEarthNet.uav[42] utilizationEnergyCharge 223178.90991211
scalar OsgEarthNet.uav[42] utilizationEnergyOverdrawMission 0
scalar OsgEarthNet.uav[42] utilizationEnergyOverdrawMaintenance 0
scalar OsgEarthNet.uav[42] utilizationCountMissions 49
scalar OsgEarthNet.uav[42] utilizationCountManeuversMission 1119
scalar OsgEarthNet.uav[42] utilizationCountManeuversMaintenance 98
scalar OsgEarthNet.uav[42] utilizationCountChargeState 49
scalar OsgEarthNet.uav[42] utilizationCountOverdrawnAfterMission 0
scalar OsgEarthNet.uav[42] utilizationCountIdleState 49
scalar OsgEarthNet.uav[42] utilizationFail 0
scalar OsgEarthNet.uav[42] simulationTime 259200
scalar OsgEarthNet.uav[43] utilizationSecMission 19004.376068062
scalar OsgEarthNet.uav[43] utilizationSecMaintenance 14949.688493801
scalar OsgEarthNet.uav[43] utilizationSecCharge 130390
scalar OsgEarthNet.uav[43] utilizationSecIdle 94855.934438137
scalar OsgEarthNet.uav[43] utilizationEnergyMission 95429.61416626
scalar OsgEarthNet.uav[43] utilizationEnergyMaintenance 70658.876857757
scalar OsgEarthNet.uav[43] utilizationEnergyCharge 167878.70898438
scalar OsgEarthNet.uav[43] utilizationEnergyOverdrawMission 0
scalar OsgEarthNet.uav[43] utilizationEnergyOverdrawMaintenance 0
scalar OsgEarthNet.uav[43] utilizationCountMissions 37
scalar OsgEarthNet.uav[43] utilizationCountManeuversMission 768
scalar OsgEarthNet.uav[43] utilizationCountManeuversMaintenance 74
scalar OsgEarthNet.uav[43] utilizationCountChargeState 37
scalar OsgEarthNet.uav[43] utilizationCountOverdrawnAfterMission 0
scalar OsgEarthNet.uav[43] utilizationCountIdleState 38
scalar OsgEarthNet.uav[43] utilizationFail 0
scalar OsgEarthNet.uav[43] simulationTime 259200
scalar OsgEarthNet.uav[44] utilizationSecMission 30852.687811907
scalar OsgEarthNet.uav[44] utilizationSecMaintenance 16576.841814046
scalar OsgEarthNet.uav[44] utilizationSecCharge 180678.46237405
scalar OsgEarthNet.uav[44] utilizationSecIdle 31092.007
scalar OsgEarthNet.uav[44] utilizationEnergyMission 145728.69496918
scalar OsgEarthNet.uav[44] utilizationEnergyMaintenance 79266.506847382
scalar OsgEarthNet.uav[44] utilizationEnergyCharge 224829.71459961
scalar OsgEarthNet.uav[44] utilizationEnergyOverdrawMission 0
scalar OsgEarthNet.uav[44] utilizationEnergyOverdrawMaintenance 0
scalar OsgEarthNet.uav[44] utilizationCountMissions 57
scalar OsgEarthNet.uav[44] utilizationCountManeuversMission 787
scalar OsgEarthNet.uav[44] utilizationCountManeuversMaintenance 114
scalar OsgEarthNet.uav[44] utilizationCountChargeState 57
scalar OsgEarthNet.uav[44] utilizationCountOverdrawnAfterMission 0
scalar OsgEarthNet.uav[44] utilizationCountIdleState 57
scalar OsgEarthNet.uav[44] utilizationFail 0
scalar OsgEarthNet.uav[44] simulationTime 259200
scalar OsgEarthNet.uav[45] utilizationSecMission 33162.27010909
scalar OsgEarthNet.uav[45] utilizationSecMaintenance 14783.467381612
scalar OsgEarthNet.uav[45] utilizationSecCharge 176842.2585093
scalar OsgEarthNet.uav[45] utilizationSecIdle 34412.003
scalar OsgEarthNet.uav[45] utilizationEnergyMission 161118.99423218
scalar OsgEarthNet.uav[45] utilizationEnergyMaintenance 68955.069114685
scalar OsgEarthNet.uav[45] utilizationEnergyCharge 230140.54174805
scalar OsgEarthNet.uav[45] utilizationEnergyOverdrawMission 0
scalar OsgEarthNet.uav[45] utilizationEnergyOverdrawMaintenance 0
scalar OsgEarthNet.uav[45] utilizationCountMissions 50
scalar OsgEarthNet.uav[45] utilizationCountManeuversMission 1046
scalar OsgEarthNet.uav[45] utilizationCountManeuversMaintenance 100
scalar OsgEarthNet.uav[45] utilizationCountChargeState 50
scalar OsgEarthNet.uav[45] utilizationCountOverdrawnAfterMission 0
scalar OsgEarthNet.uav[45] utilizationCountIdleState 50
scalar OsgEarthNet.uav[45] utilizationFail 0
scalar OsgEarthNet.uav[45] simulationTime 259200
scalar OsgEarthNet.uav[46] utilizationSecMission 27635.391455987
scalar OsgEarthNet.uav[46] utilizationSecMaintenance 14985.048797544
scalar OsgEarthNet.uav[46] utilizationSecCharge 160737.55374647
scalar OsgEarthNet.uav[46] utilizationSecIdle 55842.005
scalar OsgEarthNet.uav[46] utilizationEnergyMission 132375.06664276
scalar OsgEarthNet.uav[46] utilizationEnergyMaintenance 70980.356945038
scalar OsgEarthNet.uav[46] utilizationEnergyCharge 202352.47753906
scalar OsgEarthNet.uav[46] utilizationEnergyOverdrawMission 0
scalar OsgEarthNet.uav[46] utilizationEnergyOverdrawMaintenance 0
scalar OsgEarthNet.uav[46] utilizationCountMissions 49
scalar OsgEarthNet.uav[46] utilizationCountManeuversMission 722
scalar OsgEarthNet.uav[46] utilizationCountManeuversMaintenance 98
scalar OsgEarthNet.uav[46] utilizationCountChargeState 49
scalar OsgEarthNet.uav[46] utilizationCountOverdrawnAfterMission 0
scalar OsgEarthNet.uav[46] utilizationCountIdleState 49
scalar OsgEarthNet.uav[46] utilizationFail 0
scalar OsgEarthNet.uav[46] simulationTime 259200
scalar OsgEarthNet.uav[47] utilizationSecMission 31670.269128083
scalar OsgEarthNet.uav[47] utilizationSecMaintenance 17383.486470232
scalar OsgEarthNet.uav[47] utilizationSecCharge 185104.24340169
scalar OsgEarthNet.uav[47] utilizationSecIdle 25042
scalar OsgEarthNet.uav[47] utilizationEnergyMission 150655.18028641
scalar OsgEarthNet.uav[47] utilizationEnergyMaintenance 81689.483612061
scalar OsgEarthNet.uav[47] utilizationEnergyCharge 234391.60986328
scalar OsgEarthNet.uav[47] utilizationEnergyOverdrawMission 0
scalar OsgEarthNet.uav[47] utilizationEnergyOverdrawMaintenance 0
scalar OsgEarthNet.uav[47] utilizationCountMissions 56
scalar OsgEarthNet.uav[47] utilizationCountManeuversMission 939
scalar OsgEarthNet.uav[47] utilizationCountManeuversMaintenance 112
scalar OsgEarthNet.uav[47] utilizationCountChargeState 56
scalar OsgEarthNet.uav[47] utilizationCountOverdrawnAfterMission 0
scalar OsgEarthNet.uav[47] utilizationCountIdleState 55
scalar OsgEarthNet.uav[47] utilizationFail 0
scalar OsgEarthNet.uav[47] simulationTime 259200
scalar OsgEarthNet.uav[48] utilizationSecMission 34754.591730828
scalar OsgEarthNet.uav[48] utilizationSecMaintenance 13710.251700976
scalar OsgEarthNet.uav[48] utilizationSecCharge 174473.1555682
scalar OsgEarthNet.uav[48] utilizationSecIdle 36262
scalar OsgEarthNet.uav[48] utilizationEnergyMission 168055.88670731
scalar OsgEarthNet.uav[48] utilizationEnergyMaintenance 63102.690391541
scalar OsgEarthNet.uav[48] utilizationEnergyCharge 227617.19335938
scalar OsgEarthNet.uav[48] utilizationEnergyOverdrawMission 0
scalar OsgEarthNet.uav[48] utilizationEnergyOverdrawMaintenance 0
scalar OsgEarthNet.uav[48] utilizationCountMissions 50
scalar OsgEarthNet.uav[48] utilizationCountManeuversMission 1015
scalar OsgEarthNet.uav[48] utilizationCountManeuversMaintenance 100
scalar OsgEarthNet.uav[48] utilizationCountChargeState 50
scalar OsgEarthNet.uav[48] utilizationCountOverdrawnAfterMission 0
scalar OsgEarthNet.uav[48] utilizationCountIdleState 49
scalar OsgEarthNet.uav[48] utilizationFail 0
scalar OsgEarthNet.uav[48] simulationTime 259200
scalar OsgEarthNet.uav[49] utilizationSecMission 19264.376068062
scalar OsgEarthNet.uav[49] utilizationSecMaintenance 14949.688493801
scalar OsgEarthNet.uav[49] utilizationSecCharge 129410
scalar OsgEarthNet.uav[49] utilizationSecIdle 95575.934438137
scalar OsgEarthNet.uav[49] utilizationEnergyMission 96955.186897278
scalar OsgEarthNet.uav[49] utilizationEnergyMaintenance 70918.373195648
scalar OsgEarthNet.uav[49] utilizationEnergyCharge 166435.30761719
scalar OsgEarthNet.uav[49] utilizationEnergyOverdrawMission 0
scalar OsgEarthNet.uav[49] utilizationEnergyOverdrawMaintenance 0
scalar OsgEarthNet.uav[49] utilizationCountMissions 37
scalar OsgEarthNet.uav[49] utilizationCountManeuversMission 781
scalar OsgEarthNet.uav[49] utilizationCountManeuversMaintenance 74
scalar OsgEarthNet.uav[49] utilizationCountChargeState 37
scalar OsgEarthNet.uav[49] utilizationCountOverdrawnAfterMission 0
scalar OsgEarthNet.uav[49] utilizationCountIdleState 38
scalar OsgEarthNet.uav[49] utilizationFail 0
scalar OsgEarthNet.uav[49] simulationTime 259200
scalar OsgEarthNet.uav[50] utilizationSecMission 33489.391941228
scalar OsgEarthNet.uav[50] utilizationSecMaintenance 13848.385921371
scalar OsgEarthNet.uav[50] utilizationSecCharge 173741.27188174
scalar OsgEarthNet.uav[50] utilizationSecIdle 38120.949255665
scalar OsgEarthNet.uav[50] utilizationEnergyMission 161064.58327103
scalar OsgEarthNet.uav[50] utilizationEnergyMaintenance 64690.480602264
scalar OsgEarthNet.uav[50] utilizationEnergyCharge 226029.92285156
scalar OsgEarthNet.uav[50] utilizationEnergyOverdrawMission 0
scalar OsgEarthNet.uav[50] utilizationEnergyOverdrawMaintenance 0
scalar OsgEarthNet.uav[50] utilizationCountMissions 49
scalar OsgEarthNet.uav[50] utilizationCountManeuversMission 1025
scalar OsgEarthNet.uav[50] utilizationCountManeuversMaintenance 98
scalar OsgEarthNet.uav[50] utilizationCountChargeState 49
scalar OsgEarthNet.uav[50] utilizationCountOverdrawnAfterMission 0
scalar OsgEarthNet.uav[50] utilizationCountIdleState 49
scalar OsgEarthNet.uav[50] utilizationFail 0
scalar OsgEarthNet.uav[50] simulationTime 259200
scalar OsgEarthNet.uav[51] utilizationSecMission 29339.234721119
scalar OsgEarthNet.uav[51] utilizationSecMaintenance 18414.355288649
scalar OsgEarthNet.uav[51] utilizationSecCharge 184365.44500456
scalar OsgEarthNet.uav[51] utilizationSecIdle 27080.963985674
scalar OsgEarthNet.uav[51] utilizationEnergyMission 143314.59415054
scalar OsgEarthNet.uav[51] utilizationEnergyMaintenance 86624.70129776
scalar OsgEarthNet.uav[51] utilizationEnergyCharge 229630.39257812
scalar OsgEarthNet.uav[51] utilizationEnergyOverdrawMission 0
scalar OsgEarthNet.uav[51] utilizationEnergyOverdrawMaintenance 0
scalar OsgEarthNet.uav[51] utilizationCountMissions 58
scalar OsgEarthNet.uav[51] utilizationCountManeuversMission 922
scalar OsgEarthNet.uav[51] utilizationCountManeuversMaintenance 116
scalar OsgEarthNet.uav[51] utilizationCountChargeState 58
scalar OsgEarthNet.uav[51] utilizationCountOverdrawnAfterMission 0
scalar OsgEarthNet.uav[51] utilizationCountIdleState 57
scalar OsgEarthNet.uav[51] utilizationFail 0
scalar OsgEarthNet.uav[51] simulationTime 259200
scalar OsgEarthNet.uav[52] utilizationSecMission 33037.909193458
scalar OsgEarthNet.uav[52] utilizationSecMaintenance 14518.078072169
scalar OsgEarthNet.uav[52] utilizationSecCharge 176224.38065371
scalar OsgEarthNet.uav[52] utilizationSecIdle 35419.631080665
scalar OsgEarthNet.uav[52] utilizationEnergyMission 163751.21083069
scalar OsgEarthNet.uav[52] utilizationEnergyMaintenance 66319.090141296
scalar OsgEarthNet.uav[52] utilizationEnergyCharge 228972.55493164
scalar OsgEarthNet.uav[52] utilizationEnergyOverdrawMission 0
scalar OsgEarthNet.uav[52] utilizationEnergyOverdrawMaintenance 0
scalar OsgEarthNet.uav[52] utilizationCountMissions 50
scalar OsgEarthNet.uav[52] utilizationCountManeuversMission 1276
scalar OsgEarthNet.uav[52] utilizationCountManeuversMaintenance 100
scalar OsgEarthNet.uav[52] utilizationCountChargeState 50
scalar OsgEarthNet.uav[52] utilizationCountOverdrawnAfterMission 0
scalar OsgEarthNet.uav[52] utilizationCountIdleState 50
scalar OsgEarthNet.uav[52] utilizationFail 0
scalar OsgEarthNet.uav[52] simulationTime 259200
scalar OsgEarthNet.uav[53] utilizationSecMission 18617.759869714
scalar OsgEarthNet.uav[53] utilizationSecMaintenance 11582.944920166
scalar OsgEarthNet.uav[53] utilizationSecCharge 110377.28021012
scalar OsgEarthNet.uav[53] utilizationSecIdle 118622.014
scalar OsgEarthNet.uav[53] utilizationEnergyMission 88060.581012726
scalar OsgEarthNet.uav[53] utilizationEnergyMaintenance 55141.742370605
scalar OsgEarthNet.uav[53] utilizationEnergyCharge 142799.15673828
scalar OsgEarthNet.uav[53] utilizationEnergyOverdrawMission 0
scalar OsgEarthNet.uav[53] utilizationEnergyOverdrawMaintenance 0
scalar OsgEarthNet.uav[53] utilizationCountMissions 32
scalar OsgEarthNet.uav[53] utilizationCountManeuversMission 614
scalar OsgEarthNet.uav[53] utilizationCountManeuversMaintenance 64
scalar OsgEarthNet.uav[53] utilizationCountChargeState 32
scalar OsgEarthNet.uav[53] utilizationCountOverdrawnAfterMission 0
scalar OsgEarthNet.uav[53] utilizationCountIdleState 32
scalar OsgEarthNet.uav[53] utilizationFail 0
scalar OsgEarthNet.uav[53] simulationTime 259200
scalar OsgEarthNet.uav[54] utilizationSecMission 31086.005881684
scalar OsgEarthNet.uav[54] utilizationSecMaintenance 17558.136984104
scalar OsgEarthNet.uav[54] utilizationSecCharge 185640
scalar OsgEarthNet.uav[54] utilizationSecIdle 24915.856134212
scalar OsgEarthNet.uav[54] utilizationEnergyMission 149427.90610504
scalar OsgEarthNet.uav[54] utilizationEnergyMaintenance 83516.947227478
scalar OsgEarthNet.uav[54] utilizationEnergyCharge 230757.55053711
scalar OsgEarthNet.uav[54] utilizationEnergyOverdrawMission 0
scalar OsgEarthNet.uav[54] utilizationEnergyOverdrawMaintenance 0
scalar OsgEarthNet.uav[54] utilizationCountMissions 58
scalar OsgEarthNet.uav[54] utilizationCountManeuversMission 801
scalar OsgEarthNet.uav[54] utilizationCountManeuversMaintenance 116
scalar OsgEarthNet.uav[54] utilizationCountChargeState 58
scalar OsgEarthNet.uav[54] utilizationCountOverdrawnAfterMission 0
scalar OsgEarthNet.uav[54] utilizationCountIdleState 57
scalar OsgEarthNet.uav[54] utilizationFail 0
scalar OsgEarthNet.uav[54] simulationTime 259200
scalar OsgEarthNet.uav[55] utilizationSecMission 33943.383306714
scalar OsgEarthNet.uav[55] utilizationSecMaintenance 13745.162734569
scalar OsgEarthNet.uav[55] utilizationSecCharge 174940
scalar OsgEarthNet.uav[55] utilizationSecIdle 36571.452958717
scalar OsgEarthNet.uav[55] utilizationEnergyMission 162255.26908117
scalar OsgEarthNet.uav[55] utilizationEnergyMaintenance 63467.140827179
scalar OsgEarthNet.uav[55] utilizationEnergyCharge 227617.890625
scalar OsgEarthNet.uav[55] utilizationEnergyOverdrawMission 0
scalar OsgEarthNet.uav[55] utilizationEnergyOverdrawMaintenance 0
scalar OsgEarthNet.uav[55] utilizationCountMissions 49
scalar OsgEarthNet.uav[55] utilizationCountManeuversMission 1022
scalar OsgEarthNet.uav[55] utilizationCountManeuversMaintenance 99
scalar OsgEarthNet.uav[55] utilizationCountChargeState 49
scalar OsgEarthNet.uav[55] utilizationCountOverdrawnAfterMission 0
scalar OsgEarthNet.uav[55] utilizationCountIdleState 49
scalar OsgEarthNet.uav[55] utilizationFail 0
scalar OsgEarthNet.uav[55] simulationTime 259200
scalar OsgEarthNet.uav[56] utilizationSecMission 25110.937724551
scalar OsgEarthNet.uav[56] utilizationSecMaintenance 15347.293858968
scalar OsgEarthNet.uav[56] utilizationSecCharge 150869.76741648
scalar OsgEarthNet.uav[56] utilizationSecIdle 67872
scalar OsgEarthNet.uav[56] utilizationEnergyMission 121077.83068848
scalar OsgEarthNet.uav[56] utilizationEnergyMaintenance 72315.34633255
scalar OsgEarthNet.uav[56] utilizationEnergyCharge 190554.13452148
scalar OsgEarthNet.uav[56] utilizationEnergyOverdrawMission 0
scalar OsgEarthNet.uav[56] utilizationEnergyOverdrawMaintenance 0
scalar OsgEarthNet.uav[56] utilizationCountMissions 46
scalar OsgEarthNet.uav[56] utilizationCountManeuversMission 757
scalar OsgEarthNet.uav[56] utilizationCountManeuversMaintenance 92
scalar OsgEarthNet.uav[56] utilizationCountChargeState 46
scalar OsgEarthNet.uav[56] utilizationCountOverdrawnAfterMission 0
scalar OsgEarthNet.uav[56] utilizationCountIdleState 46
scalar OsgEarthNet.uav[56] utilizationFail 0
scalar OsgEarthNet.uav[56] simulationTime 259200
scalar OsgEarthNet.uav[57] utilizationSecMission 32974.447331969
scalar OsgEarthNet.uav[57] utilizationSecMaintenance 14780.955822713
scalar OsgEarthNet.uav[57] utilizationSecCharge 176942.59384532
scalar OsgEarthNet.uav[57] utilizationSecIdle 34502.002
scalar OsgEarthNet.uav[57] utilizationEnergyMission 162829.56082916
scalar OsgEarthNet.uav[57] utilizationEnergyMaintenance 68263.53061676
scalar OsgEarthNet.uav[57] utilizationEnergyCharge 229250.04980469
scalar OsgEarthNet.uav[57] utilizationEnergyOverdrawMission 0
scalar OsgEarthNet.uav[57] utilizationEnergyOverdrawMaintenance 0
scalar OsgEarthNet.uav[57] utilizationCountMissions 50
scalar OsgEarthNet.uav[57] utilizationCountManeuversMission 1074
scalar OsgEarthNet.uav[57] utilizationCountManeuversMaintenance 100
scalar OsgEarthNet.uav[57] utilizationCountChargeState 50
scalar OsgEarthNet.uav[57] utilizationCountOverdrawnAfterMission 0
scalar OsgEarthNet.uav[57] utilizationCountIdleState 50
scalar OsgEarthNet.uav[57] utilizationFail 0
scalar OsgEarthNet.uav[57] simulationTime 259200
scalar OsgEarthNet.uav[58] utilizationSecMission 34183.823904818
scalar OsgEarthNet.uav[58] utilizationSecMaintenance 13590.719441779
scalar OsgEarthNet.uav[58] utilizationSecCharge 174170
scalar OsgEarthNet.uav[58] utilizationSecIdle 37255.455653403
scalar OsgEarthNet.uav[58] utilizationEnergyMission 165550.9204478
scalar OsgEarthNet.uav[58] utilizationEnergyMaintenance 63033.237113953
scalar OsgEarthNet.uav[58] utilizationEnergyCharge 225801.73730469
scalar OsgEarthNet.uav[58] utilizationEnergyOverdrawMission 0
scalar OsgEarthNet.uav[58] utilizationEnergyOverdrawMaintenance 0.9423713684082
scalar OsgEarthNet.uav[58] utilizationCountMissions 49
scalar OsgEarthNet.uav[58] utilizationCountManeuversMission 1024
scalar OsgEarthNet.uav[58] utilizationCountManeuversMaintenance 99
scalar OsgEarthNet.uav[58] utilizationCountChargeState 49
scalar OsgEarthNet.uav[58] utilizationCountOverdrawnAfterMission 1
scalar OsgEarthNet.uav[58] utilizationCountIdleState 50
scalar OsgEarthNet.uav[58] utilizationFail 0
scalar OsgEarthNet.uav[58] simulationTime 259200
scalar OsgEarthNet.uav[59] utilizationSecMission 21518.385022294
scalar OsgEarthNet.uav[59] utilizationSecMaintenance 14285.423051
scalar OsgEarthNet.uav[59] utilizationSecCharge 131114.05111356
scalar OsgEarthNet.uav[59] utilizationSecIdle 92282.139813144
scalar OsgEarthNet.uav[59] utilizationEnergyMission 105808.58758163
scalar OsgEarthNet.uav[59] utilizationEnergyMaintenance 67948.044849396
scalar OsgEarthNet.uav[59] utilizationEnergyCharge 169453.6595459
scalar OsgEarthNet.uav[59] utilizationEnergyOverdrawMission 0
scalar OsgEarthNet.uav[59] utilizationEnergyOverdrawMaintenance 0
scalar OsgEarthNet.uav[59] utilizationCountMissions 38
scalar OsgEarthNet.uav[59] utilizationCountManeuversMission 733
scalar OsgEarthNet.uav[59] utilizationCountManeuversMaintenance 76
scalar OsgEarthNet.uav[59] utilizationCountChargeState 38
scalar OsgEarthNet.uav[59] utilizationCountOverdrawnAfterMission 0
scalar OsgEarthNet.uav[59] utilizationCountIdleState 38
scalar OsgEarthNet.uav[59] utilizationFail 0
scalar OsgEarthNet.uav[59] simulationTime 259200
scalar OsgEarthNet.uav[60] utilizationSecMission 24191.877899025
scalar OsgEarthNet.uav[60] utilizationSecMaintenance 13697.905404178
scalar OsgEarthNet.uav[60] utilizationSecCharge 141410
scalar OsgEarthNet.uav[60] utilizationSecIdle 79900.215696797
scalar OsgEarthNet.uav[60] utilizationEnergyMission 116933.60535812
scalar OsgEarthNet.uav[60] utilizationEnergyMaintenance 64804.138542175
scalar OsgEarthNet.uav[60] utilizationEnergyCharge 182475.99462891
scalar OsgEarthNet.uav[60] utilizationEnergyOverdrawMission 0
scalar OsgEarthNet.uav[60] utilizationEnergyOverdrawMaintenance 0
scalar OsgEarthNet.uav[60] utilizationCountMissions 40
scalar OsgEarthNet.uav[60] utilizationCountManeuversMission 715
scalar OsgEarthNet.uav[60] utilizationCountManeuversMaintenance 80
scalar OsgEarthNet.uav[60] utilizationCountChargeState 40
scalar OsgEarthNet.uav[60] utilizationCountOverdrawnAfterMission 0
scalar OsgEarthNet.uav[60] utilizationCountIdleState 41
scalar OsgEarthNet.uav[60] utilizationFail 0
scalar OsgEarthNet.uav[60] simulationTime 259200
scalar OsgEarthNet.uav[61] utilizationSecMission 32997.792678694
scalar OsgEarthNet.uav[61] utilizationSecMaintenance 15684.400713327
scalar OsgEarthNet.uav[61] utilizationSecCharge 180220
scalar OsgEarthNet.uav[61] utilizationSecIdle 30297.805607979
scalar OsgEarthNet.uav[61] utilizationEnergyMission 156990.02067947
scalar OsgEarthNet.uav[61] utilizationEnergyMaintenance 74164.412716358
scalar OsgEarthNet.uav[61] utilizationEnergyCharge 225799.68774414
scalar OsgEarthNet.uav[61] utilizationEnergyOverdrawMission 0
scalar OsgEarthNet.uav[61] utilizationEnergyOverdrawMaintenance 0
scalar OsgEarthNet.uav[61] utilizationCountMissions 56
scalar OsgEarthNet.uav[61] utilizationCountManeuversMission 825
scalar OsgEarthNet.uav[61] utilizationCountManeuversMaintenance 112
scalar OsgEarthNet.uav[61] utilizationCountChargeState 55
scalar OsgEarthNet.uav[61] utilizationCountOverdrawnAfterMission 0
scalar OsgEarthNet.uav[61] utilizationCountIdleState 56
scalar OsgEarthNet.uav[61] utilizationFail 0
scalar OsgEarthNet.uav[61] simulationTime 259200
scalar OsgEarthNet.uav[62] utilizationSecMission 35578.608258851
scalar OsgEarthNet.uav[62] utilizationSecMaintenance 12773.121797487
scalar OsgEarthNet.uav[62] utilizationSecCharge 173006.26694366
scalar OsgEarthNet.uav[62] utilizationSecIdle 37842.002
scalar OsgEarthNet.uav[62] utilizationEnergyMission 172402.84540176
scalar OsgEarthNet.uav[62] utilizationEnergyMaintenance 58771.912788391
scalar OsgEarthNet.uav[62] utilizationEnergyCharge 225641.32080078
scalar OsgEarthNet.uav[62] utilizationEnergyOverdrawMission 0
scalar OsgEarthNet.uav[62] utilizationEnergyOverdrawMaintenance 0
scalar OsgEarthNet.uav[62] utilizationCountMissions 49
scalar OsgEarthNet.uav[62] utilizationCountManeuversMission 1052
scalar OsgEarthNet.uav[62] utilizationCountManeuversMaintenance 98
scalar OsgEarthNet.uav[62] utilizationCountChargeState 49
scalar OsgEarthNet.uav[62] utilizationCountOverdrawnAfterMission 0
scalar OsgEarthNet.uav[62] utilizationCountIdleState 48
scalar OsgEarthNet.uav[62] utilizationFail 0
scalar OsgEarthNet.uav[62] simulationTime 259200
scalar OsgEarthNet.uav[63] utilizationSecMission 22989.377288704
scalar OsgEarthNet.uav[63] utilizationSecMaintenance 14442.785505124
scalar OsgEarthNet.uav[63] utilizationSecCharge 140860
scalar OsgEarthNet.uav[63] utilizationSecIdle 80907.836206172
scalar OsgEarthNet.uav[63] utilizationEnergyMission 110411.03527069
scalar OsgEarthNet.uav[63] utilizationEnergyMaintenance 68424.203777313
scalar OsgEarthNet.uav[63] utilizationEnergyCharge 181666.84765625
scalar OsgEarthNet.uav[63] utilizationEnergyOverdrawMission 0
scalar OsgEarthNet.uav[63] utilizationEnergyOverdrawMaintenance 0
scalar OsgEarthNet.uav[63] utilizationCountMissions 40
scalar OsgEarthNet.uav[63] utilizationCountManeuversMission 759
scalar OsgEarthNet.uav[63] utilizationCountManeuversMaintenance 80
scalar OsgEarthNet.uav[63] utilizationCountChargeState 40
scalar OsgEarthNet.uav[63] utilizationCountOverdrawnAfterMission 0
scalar OsgEarthNet.uav[63] utilizationCountIdleState 41
scalar OsgEarthNet.uav[63] utilizationFail 0
scalar OsgEarthNet.uav[63] simulationTime 259200
scalar OsgEarthNet.uav[64] utilizationSecMission 31261.289114109
scalar OsgEarthNet.uav[64] utilizationSecMaintenance 16885.046659469
scalar OsgEarthNet.uav[64] utilizationSecCharge 183581.66022642
scalar OsgEarthNet.uav[64] utilizationSecIdle 27472.003
scalar OsgEarthNet.uav[64] utilizationEnergyMission 149219.60707855
scalar OsgEarthNet.uav[64] utilizationEnergyMaintenance 80385.579467773
scalar OsgEarthNet.uav[64] utilizationEnergyCharge 230634.50732422
scalar OsgEarthNet.uav[64] utilizationEnergyOverdrawMission 0
scalar OsgEarthNet.uav[64] utilizationEnergyOverdrawMaintenance 0
scalar OsgEarthNet.uav[64] utilizationCountMissions 56
scalar OsgEarthNet.uav[64] utilizationCountManeuversMission 905
scalar OsgEarthNet.uav[64] utilizationCountManeuversMaintenance 112
scalar OsgEarthNet.uav[64] utilizationCountChargeState 56
scalar OsgEarthNet.uav[64] utilizationCountOverdrawnAfterMission 0
scalar OsgEarthNet.uav[64] utilizationCountIdleState 55
scalar OsgEarthNet.uav[64] utilizationFail 0
scalar OsgEarthNet.uav[64] simulationTime 259200
scalar OsgEarthNet.uav[65] utilizationSecMission 33536.993661617
scalar OsgEarthNet.uav[65] utilizationSecMaintenance 13640.022218365
scalar OsgEarthNet.uav[65] utilizationSecCharge 175470
scalar OsgEarthNet.uav[65] utilizationSecIdle 36552.983120018
scalar OsgEarthNet.uav[65] utilizationEnergyMission 161297.78715134
scalar OsgEarthNet.uav[65] utilizationEnergyMaintenance 62881.032817841
scalar OsgEarthNet.uav[65] utilizationEnergyCharge 227849.93554688
scalar OsgEarthNet.uav[65] utilizationEnergyOverdrawMission 0
scalar OsgEarthNet.uav[65] utilizationEnergyOverdrawMaintenance 0
scalar OsgEarthNet.uav[65] utilizationCountMissions 49
scalar OsgEarthNet.uav[65] utilizationCountManeuversMission 1087
scalar OsgEarthNet.uav[65] utilizationCountManeuversMaintenance 98
scalar OsgEarthNet.uav[65] utilizationCountChargeState 49
scalar OsgEarthNet.uav[65] utilizationCountOverdrawnAfterMission 0
scalar OsgEarthNet.uav[65] utilizationCountIdleState 49
scalar OsgEarthNet.uav[65] utilizationFail 0
scalar OsgEarthNet.uav[65] simulationTime 259200
scalar OsgEarthNet.uav[66] utilizationSecMission 22460.260480035
scalar OsgEarthNet.uav[66] utilizationSecMaintenance 13522.68650086
scalar OsgEarthNet.uav[66] utilizationSecCharge 133443.65990157
scalar OsgEarthNet.uav[66] utilizationSecIdle 89773.392117534
scalar OsgEarthNet.uav[66] utilizationEnergyMission 108103.53826141
scalar OsgEarthNet.uav[66] utilizationEnergyMaintenance 63986.868274689
scalar OsgEarthNet.uav[66] utilizationEnergyCharge 172910.62597656
scalar OsgEarthNet.uav[66] utilizationEnergyOverdrawMission 0
scalar OsgEarthNet.uav[66] utilizationEnergyOverdrawMaintenance 0
scalar OsgEarthNet.uav[66] utilizationCountMissions 38
scalar OsgEarthNet.uav[66] utilizationCountManeuversMission 702
scalar OsgEarthNet.uav[66] utilizationCountManeuversMaintenance 76
scalar OsgEarthNet.uav[66] utilizationCountChargeState 38
scalar OsgEarthNet.uav[66] utilizationCountOverdrawnAfterMission 0
scalar OsgEarthNet.uav[66] utilizationCountIdleState 38
scalar OsgEarthNet.uav[66] utilizationFail 0
scalar OsgEarthNet.uav[66] simulationTime 259200
scalar OsgEarthNet.uav[67] utilizationSecMission 30316.51009494
scalar OsgEarthNet.uav[67] utilizationSecMaintenance 18891.520448182
scalar OsgEarthNet.uav[67] utilizationSecCharge 184640.16015535
scalar OsgEarthNet.uav[67] utilizationSecIdle 25351.80830153
scalar OsgEarthNet.uav[67] utilizationEnergyMission 147926.89653397
scalar OsgEarthNet.uav[67] utilizationEnergyMaintenance 89886.017284393
scalar OsgEarthNet.uav[67] utilizationEnergyCharge 233937.19384766
scalar OsgEarthNet.uav[67] utilizationEnergyOverdrawMission 0
scalar OsgEarthNet.uav[67] utilizationEnergyOverdrawMaintenance 0
scalar OsgEarthNet.uav[67] utilizationCountMissions 56
scalar OsgEarthNet.uav[67] utilizationCountManeuversMission 1046
scalar OsgEarthNet.uav[67] utilizationCountManeuversMaintenance 112
scalar OsgEarthNet.uav[67] utilizationCountChargeState 56
scalar OsgEarthNet.uav[67] utilizationCountOverdrawnAfterMission 0
scalar OsgEarthNet.uav[67] utilizationCountIdleState 56
scalar OsgEarthNet.uav[67] utilizationFail 0
scalar OsgEarthNet.uav[67] simulationTime 259200
scalar OsgEarthNet.uav[68] utilizationSecMission 33039.440140867
scalar OsgEarthNet.uav[68] utilizationSecMaintenance 14492.644388792
scalar OsgEarthNet.uav[68] utilizationSecCharge 175615.91147034
scalar OsgEarthNet.uav[68] utilizationSecIdle 36052.003
scalar OsgEarthNet.uav[68] utilizationEnergyMission 160940.84792709
scalar OsgEarthNet.uav[68] utilizationEnergyMaintenance 66761.742420197
scalar OsgEarthNet.uav[68] utilizationEnergyCharge 228123.92626953
scalar OsgEarthNet.uav[68] utilizationEnergyOverdrawMission 0
scalar OsgEarthNet.uav[68] utilizationEnergyOverdrawMaintenance 0
scalar OsgEarthNet.uav[68] utilizationCountMissions 50
scalar OsgEarthNet.uav[68] utilizationCountManeuversMission 1144
scalar OsgEarthNet.uav[68] utilizationCountManeuversMaintenance 100
scalar OsgEarthNet.uav[68] utilizationCountChargeState 50
scalar OsgEarthNet.uav[68] utilizationCountOverdrawnAfterMission 0
scalar OsgEarthNet.uav[68] utilizationCountIdleState 49
scalar OsgEarthNet.uav[68] utilizationFail 0
scalar OsgEarthNet.uav[68] simulationTime 259200
scalar OsgEarthNet.uav[69] utilizationSecMission 30416.21505595
scalar OsgEarthNet.uav[69] utilizationSecMaintenance 15281.76694405
scalar OsgEarthNet.uav[69] utilizationSecCharge 167790
scalar OsgEarthNet.uav[69] utilizationSecIdle 45712.017
scalar OsgEarthNet.uav[69] utilizationEnergyMission 150538.12588501
scalar OsgEarthNet.uav[69] utilizationEnergyMaintenance 69873.743753379
scalar OsgEarthNet.uav[69] utilizationEnergyCharge 215558.40795898
scalar OsgEarthNet.uav[69] utilizationEnergyOverdrawMission 0
scalar OsgEarthNet.uav[69] utilizationEnergyOverdrawMaintenance 0
scalar OsgEarthNet.uav[69] utilizationCountMissions 49
scalar OsgEarthNet.uav[69] utilizationCountManeuversMission 1070
scalar OsgEarthNet.uav[69] utilizationCountManeuversMaintenance 98
scalar OsgEarthNet.uav[69] utilizationCountChargeState 48
scalar OsgEarthNet.uav[69] utilizationCountOverdrawnAfterMission 0
scalar OsgEarthNet.uav[69] utilizationCountIdleState 49
scalar OsgEarthNet.uav[69] utilizationFail 0
scalar OsgEarthNet.uav[69] simulationTime 259200
scalar OsgEarthNet.uav[70] utilizationSecMission 25333.019129107
scalar OsgEarthNet.uav[70] utilizationSecMaintenance 13989.642258736
scalar OsgEarthNet.uav[70] utilizationSecCharge 143485.82395121
scalar OsgEarthNet.uav[70] utilizationSecIdle 76391.51366095
scalar OsgEarthNet.uav[70] utilizationEnergyMission 120957.12191391
scalar OsgEarthNet.uav[70] utilizationEnergyMaintenance 66502.164543152
scalar OsgEarthNet.uav[70] utilizationEnergyCharge 186111.36767578
scalar OsgEarthNet.uav[70] utilizationEnergyOverdrawMission 0
scalar OsgEarthNet.uav[70] utilizationEnergyOverdrawMaintenance 0
scalar OsgEarthNet.uav[70] utilizationCountMissions 41
scalar OsgEarthNet.uav[70] utilizationCountManeuversMission 737
scalar OsgEarthNet.uav[70] utilizationCountManeuversMaintenance 82
scalar OsgEarthNet.uav[70] utilizationCountChargeState 41
scalar OsgEarthNet.uav[70] utilizationCountOverdrawnAfterMission 0
scalar OsgEarthNet.uav[70] utilizationCountIdleState 41
scalar OsgEarthNet.uav[70] utilizationFail 0
scalar OsgEarthNet.uav[70] simulationTime 259200
scalar OsgEarthNet.uav[71] utilizationSecMission 30272.086868552
scalar OsgEarthNet.uav[71] utilizationSecMaintenance 17764.187699933
scalar OsgEarthNet.uav[71] utilizationSecCharge 184041.72292479
scalar OsgEarthNet.uav[71] utilizationSecIdle 27122.001506722
scalar OsgEarthNet.uav[71] utilizationEnergyMission 145966.65300751
scalar OsgEarthNet.uav[71] utilizationEnergyMaintenance 84874.385368347
scalar OsgEarthNet.uav[71] utilizationEnergyCharge 230844.18457031
scalar OsgEarthNet.uav[71] utilizationEnergyOverdrawMission 0
scalar OsgEarthNet.uav[71] utilizationEnergyOverdrawMaintenance 0
scalar OsgEarthNet.uav[71] utilizationCountMissions 57
scalar OsgEarthNet.uav[71] utilizationCountManeuversMission 927
scalar OsgEarthNet.uav[71] utilizationCountManeuversMaintenance 114
scalar OsgEarthNet.uav[71] utilizationCountChargeState 57
scalar OsgEarthNet.uav[71] utilizationCountOverdrawnAfterMission 0
scalar OsgEarthNet.uav[71] utilizationCountIdleState 56
scalar OsgEarthNet.uav[71] utilizationFail 0
scalar OsgEarthNet.uav[71] simulationTime 259200
scalar OsgEarthNet.uav[72] utilizationSecMission 33358.305209464
scalar OsgEarthNet.uav[72] utilizationSecMaintenance 14693.531541519
scalar OsgEarthNet.uav[72] utilizationSecCharge 174341.8120282
scalar OsgEarthNet.uav[72] utilizationSecIdle 36806.350220821
scalar OsgEarthNet.uav[72] utilizationEnergyMission 163502.16838455
scalar OsgEarthNet.uav[72] utilizationEnergyMaintenance 68225.468387604
scalar OsgEarthNet.uav[72] utilizationEnergyCharge 226086.97027588
scalar OsgEarthNet.uav[72] utilizationEnergyOverdrawMission 0
scalar OsgEarthNet.uav[72] utilizationEnergyOverdrawMaintenance 0
scalar OsgEarthNet.uav[72] utilizationCountMissions 50
scalar OsgEarthNet.uav[72] utilizationCountManeuversMission 1060
scalar OsgEarthNet.uav[72] utilizationCountManeuversMaintenance 100
scalar OsgEarthNet.uav[72] utilizationCountChargeState 50
scalar OsgEarthNet.uav[72] utilizationCountOverdrawnAfterMission 0
scalar OsgEarthNet.uav[72] utilizationCountIdleState 49
scalar OsgEarthNet.uav[72] utilizationFail 0
scalar OsgEarthNet.uav[72] simulationTime 259200
scalar OsgEarthNet.uav[73] utilizationSecMission 30017.948654389
scalar OsgEarthNet.uav[73] utilizationSecMaintenance 17396.379003004
scalar OsgEarthNet.uav[73] utilizationSecCharge 179603.67034261
scalar OsgEarthNet.uav[73] utilizationSecIdle 32182.001
scalar OsgEarthNet.uav[73] utilizationEnergyMission 146335.03080368
scalar OsgEarthNet.uav[73] utilizationEnergyMaintenance 82485.474224091
scalar OsgEarthNet.uav[73] utilizationEnergyCharge 222750.69549561
scalar OsgEarthNet.uav[73] utilizationEnergyOverdrawMission 0
scalar OsgEarthNet.uav[73] utilizationEnergyOverdrawMaintenance 0
scalar OsgEarthNet.uav[73] utilizationCountMissions 57
scalar OsgEarthNet.uav[73] utilizationCountManeuversMission 856
scalar OsgEarthNet.uav[73] utilizationCountManeuversMaintenance 114
scalar OsgEarthNet.uav[73] utilizationCountChargeState 57
scalar OsgEarthNet.uav[73] utilizationCountOverdrawnAfterMission 0
scalar OsgEarthNet.uav[73] utilizationCountIdleState 57
scalar OsgEarthNet.uav[73] utilizationFail 0
scalar OsgEarthNet.uav[73] simulationTime 259200
scalar OsgEarthNet.uav[74] utilizationSecMission 30154.573306716
scalar OsgEarthNet.uav[74] utilizationSecMaintenance 17498.109611453
scalar OsgEarthNet.uav[74] utilizationSecCharge 182500
scalar OsgEarthNet.uav[74] utilizationSecIdle 29047.316081831
scalar OsgEarthNet.uav[74] utilizationEnergyMission 144530.19332504
scalar OsgEarthNet.uav[74] utilizationEnergyMaintenance 82857.219221566
scalar OsgEarthNet.uav[74] utilizationEnergyCharge 226256.14990234
scalar OsgEarthNet.uav[74] utilizationEnergyOverdrawMission 0
scalar OsgEarthNet.uav[74] utilizationEnergyOverdrawMaintenance 0
scalar OsgEarthNet.uav[74] utilizationCountMissions 57
scalar OsgEarthNet.uav[74] utilizationCountManeuversMission 838
scalar OsgEarthNet.uav[74] utilizationCountManeuversMaintenance 115
scalar OsgEarthNet.uav[74] utilizationCountChargeState 57
scalar OsgEarthNet.uav[74] utilizationCountOverdrawnAfterMission 0
scalar OsgEarthNet.uav[74] utilizationCountIdleState 58
scalar OsgEarthNet.uav[74] utilizationFail 0
scalar OsgEarthNet.uav[74] simulationTime 259200
scalar OsgEarthNet.uav[75] utilizationSecMission 33976.927946546
scalar OsgEarthNet.uav[75] utilizationSecMaintenance 13523.106638139
scalar OsgEarthNet.uav[75] utilizationSecCharge 174770.12760128
scalar OsgEarthNet.uav[75] utilizationSecIdle 36929.83681404
scalar OsgEarthNet.uav[75] utilizationEnergyMission 163503.79665756
scalar OsgEarthNet.uav[75] utilizationEnergyMaintenance 62104.273509979
scalar OsgEarthNet.uav[75] utilizationEnergyCharge 226852.77197266
scalar OsgEarthNet.uav[75] utilizationEnergyOverdrawMission 0
scalar OsgEarthNet.uav[75] utilizationEnergyOverdrawMaintenance 0
scalar OsgEarthNet.uav[75] utilizationCountMissions 49
scalar OsgEarthNet.uav[75] utilizationCountManeuversMission 923
scalar OsgEarthNet.uav[75] utilizationCountManeuversMaintenance 98
scalar OsgEarthNet.uav[75] utilizationCountChargeState 49
scalar OsgEarthNet.uav[75] utilizationCountOverdrawnAfterMission 0
scalar OsgEarthNet.uav[75] utilizationCountIdleState 48
scalar OsgEarthNet.uav[75] utilizationFail 0
scalar OsgEarthNet.uav[75] simulationTime 259200
scalar OsgEarthNet.uav[76] utilizationSecMission 22887.698336417
scalar OsgEarthNet.uav[76] utilizationSecMaintenance 13467.030089465
scalar OsgEarthNet.uav[76] utilizationSecCharge 133580
scalar OsgEarthNet.uav[76] utilizationSecIdle 89265.270574118
scalar OsgEarthNet.uav[76] utilizationEnergyMission 110997.13830884
scalar OsgEarthNet.uav[76] utilizationEnergyMaintenance 64187.976154327
scalar OsgEarthNet.uav[76] utilizationEnergyCharge 172327.23144531
scalar OsgEarthNet.uav[76] utilizationEnergyOverdrawMission 0
scalar OsgEarthNet.uav[76] utilizationEnergyOverdrawMaintenance 0
scalar OsgEarthNet.uav[76] utilizationCountMissions 38
scalar OsgEarthNet.uav[76] utilizationCountManeuversMission 702
scalar OsgEarthNet.uav[76] utilizationCountManeuversMaintenance 77
scalar OsgEarthNet.uav[76] utilizationCountChargeState 38
scalar OsgEarthNet.uav[76] utilizationCountOverdrawnAfterMission 0
scalar OsgEarthNet.uav[76] utilizationCountIdleState 39
scalar OsgEarthNet.uav[76] utilizationFail 0
scalar OsgEarthNet.uav[76] simulationTime 259200
scalar OsgEarthNet.uav[77] utilizationSecMission 33038.769303268
scalar OsgEarthNet.uav[77] utilizationSecMaintenance 16583.118948419
scalar OsgEarthNet.uav[77] utilizationSecCharge 184856.10974831
scalar OsgEarthNet.uav[77] utilizationSecIdle 24722.001
scalar OsgEarthNet.uav[77] utilizationEnergyMission 157821.22330856
scalar OsgEarthNet.uav[77] utilizationEnergyMaintenance 78743.142242432
scalar OsgEarthNet.uav[77] utilizationEnergyCharge 234048.84936523
scalar OsgEarthNet.uav[77] utilizationEnergyOverdrawMission 0
scalar OsgEarthNet.uav[77] utilizationEnergyOverdrawMaintenance 0
scalar OsgEarthNet.uav[77] utilizationCountMissions 56
scalar OsgEarthNet.uav[77] utilizationCountManeuversMission 884
scalar OsgEarthNet.uav[77] utilizationCountManeuversMaintenance 112
scalar OsgEarthNet.uav[77] utilizationCountChargeState 56
scalar OsgEarthNet.uav[77] utilizationCountOverdrawnAfterMission 0
scalar OsgEarthNet.uav[77] utilizationCountIdleState 56
scalar OsgEarthNet.uav[77] utilizationFail 0
scalar OsgEarthNet.uav[77] simulationTime 259200
scalar OsgEarthNet.uav[78] utilizationSecMission 32830.614773831
scalar OsgEarthNet.uav[78] utilizationSecMaintenance 15563.442104102
scalar OsgEarthNet.uav[78] utilizationSecCharge 177813.93812207
scalar OsgEarthNet.uav[78] utilizationSecIdle 32992.004
scalar OsgEarthNet.uav[78] utilizationEnergyMission 160205.37123871
scalar OsgEarthNet.uav[78] utilizationEnergyMaintenance 72069.083969116
scalar OsgEarthNet.uav[78] utilizationEnergyCharge 230139.08081055
scalar OsgEarthNet.uav[78] utilizationEnergyOverdrawMission 0
scalar OsgEarthNet.uav[78] utilizationEnergyOverdrawMaintenance 0
scalar OsgEarthNet.uav[78] utilizationCountMissions 51
scalar OsgEarthNet.uav[78] utilizationCountManeuversMission 1197
scalar OsgEarthNet.uav[78] utilizationCountManeuversMaintenance 102
scalar OsgEarthNet.uav[78] utilizationCountChargeState 51
scalar OsgEarthNet.uav[78] utilizationCountOverdrawnAfterMission 0
scalar OsgEarthNet.uav[78] utilizationCountIdleState 51
scalar OsgEarthNet.uav[78] utilizationFail 0
scalar OsgEarthNet.uav[78] simulationTime 259200
scalar OsgEarthNet.uav[79] utilizationSecMission 22319.119249954
scalar OsgEarthNet.uav[79] utilizationSecMaintenance 14168.871750046
scalar OsgEarthNet.uav[79] utilizationSecCharge 133050
scalar OsgEarthNet.uav[79] utilizationSecIdle 89662.008
scalar OsgEarthNet.uav[79] utilizationEnergyMission 108440.17049789
scalar OsgEarthNet.uav[79] utilizationEnergyMaintenance 67399.90230204
scalar OsgEarthNet.uav[79] utilizationEnergyCharge 171118.20751953
scalar OsgEarthNet.uav[79] utilizationEnergyOverdrawMission 0
scalar OsgEarthNet.uav[79] utilizationEnergyOverdrawMaintenance 0
scalar OsgEarthNet.uav[79] utilizationCountMissions 39
scalar OsgEarthNet.uav[79] utilizationCountManeuversMission 730
scalar OsgEarthNet.uav[79] utilizationCountManeuversMaintenance 78
scalar OsgEarthNet.uav[79] utilizationCountChargeState 38
scalar OsgEarthNet.uav[79] utilizationCountOverdrawnAfterMission 0
scalar OsgEarthNet.uav[79] utilizationCountIdleState 39
scalar OsgEarthNet.uav[79] utilizationFail 0
scalar OsgEarthNet.uav[79] simulationTime 259200
scalar OsgEarthNet.uav[80] utilizationSecMission 24023.386242936
scalar OsgEarthNet.uav[80] utilizationSecMaintenance 12503.529562659
scalar OsgEarthNet.uav[80] utilizationSecCharge 134030
scalar OsgEarthNet.uav[80] utilizationSecIdle 88643.083194405
scalar OsgEarthNet.uav[80] utilizationEnergyMission 115678.42634964
scalar OsgEarthNet.uav[80] utilizationEnergyMaintenance 59644.854621887
scalar OsgEarthNet.uav[80] utilizationEnergyCharge 173107.35839844
scalar OsgEarthNet.uav[80] utilizationEnergyOverdrawMission 0
scalar OsgEarthNet.uav[80] utilizationEnergyOverdrawMaintenance 0
scalar OsgEarthNet.uav[80] utilizationCountMissions 38
scalar OsgEarthNet.uav[80] utilizationCountManeuversMission 650
scalar OsgEarthNet.uav[80] utilizationCountManeuversMaintenance 76
scalar OsgEarthNet.uav[80] utilizationCountChargeState 38
scalar OsgEarthNet.uav[80] utilizationCountOverdrawnAfterMission 0
scalar OsgEarthNet.uav[80] utilizationCountIdleState 39
scalar OsgEarthNet.uav[80] utilizationFail 0
scalar OsgEarthNet.uav[80] simulationTime 259200
scalar OsgEarthNet.uav[81] utilizationSecMission 30492.583431807
scalar OsgEarthNet.uav[81] utilizationSecMaintenance 17692.803678677
scalar OsgEarthNet.uav[81] utilizationSecCharge 184910
scalar OsgEarthNet.uav[81] utilizationSecIdle 26104.611889516
scalar OsgEarthNet.uav[81] utilizationEnergyMission 148825.92964312
scalar OsgEarthNet.uav[81] utilizationEnergyMaintenance 84176.214134216
scalar OsgEarthNet.uav[81] utilizationEnergyCharge 230782.13208008
scalar OsgEarthNet.uav[81] utilizationEnergyOverdrawMission 0
scalar OsgEarthNet.uav[81] utilizationEnergyOverdrawMaintenance 0
scalar OsgEarthNet.uav[81] utilizationCountMissions 57
scalar OsgEarthNet.uav[81] utilizationCountManeuversMission 906
scalar OsgEarthNet.uav[81] utilizationCountManeuversMaintenance 115
scalar OsgEarthNet.uav[81] utilizationCountChargeState 57
scalar OsgEarthNet.uav[81] utilizationCountOverdrawnAfterMission 0
scalar OsgEarthNet.uav[81] utilizationCountIdleState 57
scalar OsgEarthNet.uav[81] utilizationFail 0
scalar OsgEarthNet.uav[81] simulationTime 259200
scalar OsgEarthNet.cs[0] usedPower 4009879.7889138
scalar OsgEarthNet.cs[0] chargedPower 4009879.7889138
scalar OsgEarthNet.cs[0] chargedMobileNodes 877
scalar OsgEarthNet.cs[0] reservations 889
scalar OsgEarthNet.cs[1] usedPower 5704980.9194436
scalar OsgEarthNet.cs[1] chargedPower 5704980.9194436
scalar OsgEarthNet.cs[1] chargedMobileNodes 1377
scalar OsgEarthNet.cs[1] reservations 1412
scalar OsgEarthNet.cs[2] usedPower 6964168.787687
scalar OsgEarthNet.cs[2] chargedPower 6964168.787687
scalar OsgEarthNet.cs[2] chargedMobileNodes 1478
scalar OsgEarthNet.cs[2] reservations 1521

