version 2
run Szenario_Hotel_Gabelbach-351-20180719-14:23:57-2652
attr configname Szenario_Hotel_Gabelbach
attr datetime 20180719-14:23:57
attr experiment Szenario_Hotel_Gabelbach
attr inifile omnetpp.ini
attr iterationvars "$replM=2, $biWeight=0.35, $replSearchM=1, $numUAVs=80"
attr iterationvarsf replM=2,biWeight=0.35,replSearchM=1,numUAVs=80-
attr measurement "$replM=2, $biWeight=0.35, $replSearchM=1, $numUAVs=80"
attr network OsgEarthNet
attr processid 2652
attr repetition 15
attr replication #15
attr resultdir results
attr runnumber 351
attr seedset 351
itervar biWeight 0.35
itervar numUAVs 80
itervar replM 2
itervar replSearchM 1
param *.osgEarthScene.scene "\"Szenario_Hotel_Gabelbach.earth\""
param *.playgroundLatitude 50.6830269
param *.playgroundLongitude 10.8538055
param *.playgroundWidth 3500m
param *.playgroundHeight 3500m
param *.cs[0].posX 3537m
param *.cs[0].posY 965m
param *.cs[0].posZ 538m
param *.cs[1].posX 312m
param *.cs[1].posY 1262m
param *.cs[1].posZ 539m
param *.cs[2].posX 2185m
param *.cs[2].posY 3026m
param *.cs[2].posZ 777m
param *.cs[3].posX 10m
param *.cs[3].posY 2200m
param *.cs[3].posZ 560m
param *.cs[4].posX 750m
param *.cs[4].posY 200m
param *.cs[4].posZ 540m
param *.cs[5].posX 2450m
param *.cs[5].posY 180m
param *.cs[5].posZ 524m
param *.cs[6].posX 3140m
param *.cs[6].posY 1790m
param *.cs[6].posZ 606m
param *.numCSs 3
param *.uav[*].replacementMethod 2
param *.uav[*].weightedSumWeight 0.35
param *.missionControl.replacementSearchMethod 1
param *.numUAVs 80
param *.*.timeStep 10s
param *.uav[*].commandPreviewCommandCount 20
param *.missionControl.missionFiles "\"missions\\\\Szenario_WB_Hotel_Gabelbach_Mission_Hotel.waypoints,missions\\\\Szenario_WB_Hotel_Gabelbach_Mission_Kickelhahn.waypoints,missions\\\\Szenario_WB_Hotel_Gabelbach_Mission_Ilmenau_Sportplatz.waypoints,missions\\\\Szenario_WB_Hotel_Gabelbach_Mission_Manebach_Mitte.waypoints,missions\\\\Szenario_WB_Hotel_Gabelbach_Mission_Manebach_Sued.waypoints,missions\\\\Szenario_WB_Hotel_Gabelbach_Hover_HoheSchlaufe.waypoints,missions\\\\Szenario_WB_Hotel_Gabelbach_Hover_Kickelhahn.waypoints,missions\\\\Szenario_WB_Hotel_Gabelbach_Hover_Gabelbachskopf.waypoints,missions\\\\Szenario_WB_Hotel_Gabelbach_Hover_Dachskopf.waypoints\""
param *.uav[0].startX 3537m
param *.uav[0].startY 965m
param *.uav[0].startZ 539m
param *.uav[1].startX 312m
param *.uav[1].startY 1262m
param *.uav[1].startZ 540m
param *.uav[2].startX 2185m
param *.uav[2].startY 3026m
param *.uav[2].startZ 778m
param *.uav[3].startX 3537m
param *.uav[3].startY 965m
param *.uav[3].startZ 539m
param *.uav[4].startX 312m
param *.uav[4].startY 1262m
param *.uav[4].startZ 540m
param *.uav[5].startX 2185m
param *.uav[5].startY 3026m
param *.uav[5].startZ 778m
param *.uav[6].startX 3537m
param *.uav[6].startY 965m
param *.uav[6].startZ 539m
param *.uav[7].startX 312m
param *.uav[7].startY 1262m
param *.uav[7].startZ 540m
param *.uav[8].startX 2185m
param *.uav[8].startY 3026m
param *.uav[8].startZ 778m
param *.uav[9].startX 3537m
param *.uav[9].startY 965m
param *.uav[9].startZ 539m
param *.uav[10].startX 3537m
param *.uav[10].startY 965m
param *.uav[10].startZ 539m
param *.uav[11].startX 312m
param *.uav[11].startY 1262m
param *.uav[11].startZ 540m
param *.uav[12].startX 2185m
param *.uav[12].startY 3026m
param *.uav[12].startZ 778m
param *.uav[13].startX 3537m
param *.uav[13].startY 965m
param *.uav[13].startZ 539m
param *.uav[14].startX 312m
param *.uav[14].startY 1262m
param *.uav[14].startZ 540m
param *.uav[15].startX 2185m
param *.uav[15].startY 3026m
param *.uav[15].startZ 778m
param *.uav[16].startX 3537m
param *.uav[16].startY 965m
param *.uav[16].startZ 539m
param *.uav[17].startX 312m
param *.uav[17].startY 1262m
param *.uav[17].startZ 540m
param *.uav[18].startX 2185m
param *.uav[18].startY 3026m
param *.uav[18].startZ 778m
param *.uav[19].startX 3537m
param *.uav[19].startY 965m
param *.uav[19].startZ 539m
param *.uav[20].startX 3537m
param *.uav[20].startY 965m
param *.uav[20].startZ 539m
param *.uav[21].startX 312m
param *.uav[21].startY 1262m
param *.uav[21].startZ 540m
param *.uav[22].startX 2185m
param *.uav[22].startY 3026m
param *.uav[22].startZ 778m
param *.uav[23].startX 3537m
param *.uav[23].startY 965m
param *.uav[23].startZ 539m
param *.uav[24].startX 312m
param *.uav[24].startY 1262m
param *.uav[24].startZ 540m
param *.uav[25].startX 2185m
param *.uav[25].startY 3026m
param *.uav[25].startZ 778m
param *.uav[26].startX 3537m
param *.uav[26].startY 965m
param *.uav[26].startZ 539m
param *.uav[27].startX 312m
param *.uav[27].startY 1262m
param *.uav[27].startZ 540m
param *.uav[28].startX 2185m
param *.uav[28].startY 3026m
param *.uav[28].startZ 778m
param *.uav[29].startX 3537m
param *.uav[29].startY 965m
param *.uav[29].startZ 539m
param *.uav[30].startX 3537m
param *.uav[30].startY 965m
param *.uav[30].startZ 539m
param *.uav[31].startX 312m
param *.uav[31].startY 1262m
param *.uav[31].startZ 540m
param *.uav[32].startX 2185m
param *.uav[32].startY 3026m
param *.uav[32].startZ 778m
param *.uav[33].startX 3537m
param *.uav[33].startY 965m
param *.uav[33].startZ 539m
param *.uav[34].startX 312m
param *.uav[34].startY 1262m
param *.uav[34].startZ 540m
param *.uav[35].startX 2185m
param *.uav[35].startY 3026m
param *.uav[35].startZ 778m
param *.uav[36].startX 3537m
param *.uav[36].startY 965m
param *.uav[36].startZ 539m
param *.uav[37].startX 312m
param *.uav[37].startY 1262m
param *.uav[37].startZ 540m
param *.uav[38].startX 2185m
param *.uav[38].startY 3026m
param *.uav[38].startZ 778m
param *.uav[39].startX 3537m
param *.uav[39].startY 965m
param *.uav[39].startZ 539m
param *.uav[40].startX 3537m
param *.uav[40].startY 965m
param *.uav[40].startZ 539m
param *.uav[41].startX 312m
param *.uav[41].startY 1262m
param *.uav[41].startZ 540m
param *.uav[42].startX 2185m
param *.uav[42].startY 3026m
param *.uav[42].startZ 778m
param *.uav[43].startX 3537m
param *.uav[43].startY 965m
param *.uav[43].startZ 539m
param *.uav[44].startX 312m
param *.uav[44].startY 1262m
param *.uav[44].startZ 540m
param *.uav[45].startX 2185m
param *.uav[45].startY 3026m
param *.uav[45].startZ 778m
param *.uav[46].startX 3537m
param *.uav[46].startY 965m
param *.uav[46].startZ 539m
param *.uav[47].startX 312m
param *.uav[47].startY 1262m
param *.uav[47].startZ 540m
param *.uav[48].startX 2185m
param *.uav[48].startY 3026m
param *.uav[48].startZ 778m
param *.uav[49].startX 3537m
param *.uav[49].startY 965m
param *.uav[49].startZ 539m
param *.uav[50].startX 3537m
param *.uav[50].startY 965m
param *.uav[50].startZ 539m
param *.uav[51].startX 312m
param *.uav[51].startY 1262m
param *.uav[51].startZ 540m
param *.uav[52].startX 2185m
param *.uav[52].startY 3026m
param *.uav[52].startZ 778m
param *.uav[53].startX 3537m
param *.uav[53].startY 965m
param *.uav[53].startZ 539m
param *.uav[54].startX 312m
param *.uav[54].startY 1262m
param *.uav[54].startZ 540m
param *.uav[55].startX 2185m
param *.uav[55].startY 3026m
param *.uav[55].startZ 778m
param *.uav[56].startX 3537m
param *.uav[56].startY 965m
param *.uav[56].startZ 539m
param *.uav[57].startX 312m
param *.uav[57].startY 1262m
param *.uav[57].startZ 540m
param *.uav[58].startX 2185m
param *.uav[58].startY 3026m
param *.uav[58].startZ 778m
param *.uav[59].startX 3537m
param *.uav[59].startY 965m
param *.uav[59].startZ 539m
param *.uav[60].startX 3537m
param *.uav[60].startY 965m
param *.uav[60].startZ 539m
param *.uav[61].startX 312m
param *.uav[61].startY 1262m
param *.uav[61].startZ 540m
param *.uav[62].startX 2185m
param *.uav[62].startY 3026m
param *.uav[62].startZ 778m
param *.uav[63].startX 3537m
param *.uav[63].startY 965m
param *.uav[63].startZ 539m
param *.uav[64].startX 312m
param *.uav[64].startY 1262m
param *.uav[64].startZ 540m
param *.uav[65].startX 2185m
param *.uav[65].startY 3026m
param *.uav[65].startZ 778m
param *.uav[66].startX 3537m
param *.uav[66].startY 965m
param *.uav[66].startZ 539m
param *.uav[67].startX 312m
param *.uav[67].startY 1262m
param *.uav[67].startZ 540m
param *.uav[68].startX 2185m
param *.uav[68].startY 3026m
param *.uav[68].startZ 778m
param *.uav[69].startX 3537m
param *.uav[69].startY 965m
param *.uav[69].startZ 539m
param *.uav[70].startX 3537m
param *.uav[70].startY 965m
param *.uav[70].startZ 539m
param *.uav[71].startX 312m
param *.uav[71].startY 1262m
param *.uav[71].startZ 540m
param *.uav[72].startX 2185m
param *.uav[72].startY 3026m
param *.uav[72].startZ 778m
param *.uav[73].startX 3537m
param *.uav[73].startY 965m
param *.uav[73].startZ 539m
param *.uav[74].startX 312m
param *.uav[74].startY 1262m
param *.uav[74].startZ 540m
param *.uav[75].startX 2185m
param *.uav[75].startY 3026m
param *.uav[75].startZ 778m
param *.uav[76].startX 3537m
param *.uav[76].startY 965m
param *.uav[76].startZ 539m
param *.uav[77].startX 312m
param *.uav[77].startY 1262m
param *.uav[77].startZ 540m
param *.uav[78].startX 2185m
param *.uav[78].startY 3026m
param *.uav[78].startZ 778m
param *.uav[79].startX 3537m
param *.uav[79].startY 965m
param *.uav[79].startZ 539m
param *.uav[80].startX 3537m
param *.uav[80].startY 965m
param *.uav[80].startZ 539m
param *.uav[81].startX 312m
param *.uav[81].startY 1262m
param *.uav[81].startZ 540m
param *.uav[82].startX 2185m
param *.uav[82].startY 3026m
param *.uav[82].startZ 778m
param *.uav[83].startX 3537m
param *.uav[83].startY 965m
param *.uav[83].startZ 539m
param *.uav[84].startX 312m
param *.uav[84].startY 1262m
param *.uav[84].startZ 540m
param *.uav[85].startX 2185m
param *.uav[85].startY 3026m
param *.uav[85].startZ 778m
param *.uav[86].startX 3537m
param *.uav[86].startY 965m
param *.uav[86].startZ 539m
param *.uav[87].startX 312m
param *.uav[87].startY 1262m
param *.uav[87].startZ 540m
param *.uav[88].startX 2185m
param *.uav[88].startY 3026m
param *.uav[88].startZ 778m
param *.uav[89].startX 3537m
param *.uav[89].startY 965m
param *.uav[89].startZ 539m
param *.uav[90].startX 3537m
param *.uav[90].startY 965m
param *.uav[90].startZ 539m
param *.uav[91].startX 312m
param *.uav[91].startY 1262m
param *.uav[91].startZ 540m
param *.uav[92].startX 2185m
param *.uav[92].startY 3026m
param *.uav[92].startZ 778m
param *.uav[93].startX 3537m
param *.uav[93].startY 965m
param *.uav[93].startZ 539m
param *.uav[94].startX 312m
param *.uav[94].startY 1262m
param *.uav[94].startZ 540m
param *.uav[95].startX 2185m
param *.uav[95].startY 3026m
param *.uav[95].startZ 778m
param *.uav[96].startX 3537m
param *.uav[96].startY 965m
param *.uav[96].startZ 539m
param *.uav[97].startX 312m
param *.uav[97].startY 1262m
param *.uav[97].startZ 540m
param *.uav[98].startX 2185m
param *.uav[98].startY 3026m
param *.uav[98].startZ 778m
param *.uav[99].startX 3537m
param *.uav[99].startY 965m
param *.uav[99].startZ 539m
param *.osgEarthScene.scene "\"boston.earth\""
param *.playgroundLatitude 42.3558
param *.playgroundLongitude -71.0677
param *.playgroundWidth 400m
param *.playgroundHeight 200m
param *.channelController.connectionColor "\"#0000FF40\""
param *.channelController.showConnections false
param *.uav[*].modelURL "\"quadrocopter.small.obj.15.scale.0,0,90.rot\""
param *.uav[*].labelColor "\"#FF7C00CC\""
param *.uav[*].label2Color "\"#FF7C00EE\""
param *.uav[*].batteryCapacity 5200mAh
param *.uav[*].batteryRemaining uav[index].batteryCapacity
param *.uav[*].predictionQuantile 0.95
param *.uav[*].replacementMethod 2
param *.uav[*].weightedSumWeight 0.5
param *.cs[*].modelURL "\"chargingstation_v1.osgt.2.scale.0,0,0.rot.0,0,-15e-1.trans\""
param *.cs[*].spotsWaiting 999
param *.cs[*].spotsCharging 999
param *.cs[*].chargeEffectivenessPercentage 100
param *.cs[*].nonLinearPhaseStartPercentage 85
param *.cs[*].chargeCurrent 6.0A
param *.cs[*].prioritizeFastCharge true
param *.missionControl.replacementSearchMethod 0
param *.*.timeStep 9s

scalar OsgEarthNet.uav[0] utilizationSecMission 26949.612238445
scalar OsgEarthNet.uav[0] utilizationSecMaintenance 16608.587965921
scalar OsgEarthNet.uav[0] utilizationSecCharge 169309.79279563
scalar OsgEarthNet.uav[0] utilizationSecIdle 46332.006
scalar OsgEarthNet.uav[0] utilizationEnergyMission 129396.03447342
scalar OsgEarthNet.uav[0] utilizationEnergyMaintenance 79704.86252594
scalar OsgEarthNet.uav[0] utilizationEnergyCharge 209393.39868164
scalar OsgEarthNet.uav[0] utilizationEnergyOverdrawMission 0
scalar OsgEarthNet.uav[0] utilizationEnergyOverdrawMaintenance 0
scalar OsgEarthNet.uav[0] utilizationCountMissions 54
scalar OsgEarthNet.uav[0] utilizationCountManeuversMission 739
scalar OsgEarthNet.uav[0] utilizationCountManeuversMaintenance 108
scalar OsgEarthNet.uav[0] utilizationCountChargeState 54
scalar OsgEarthNet.uav[0] utilizationCountOverdrawnAfterMission 0
scalar OsgEarthNet.uav[0] utilizationCountIdleState 54
scalar OsgEarthNet.uav[0] utilizationFail 0
scalar OsgEarthNet.uav[0] simulationTime 259200
scalar OsgEarthNet.uav[1] utilizationSecMission 30789.294887934
scalar OsgEarthNet.uav[1] utilizationSecMaintenance 17522.548014906
scalar OsgEarthNet.uav[1] utilizationSecCharge 182236.15609716
scalar OsgEarthNet.uav[1] utilizationSecIdle 28652
scalar OsgEarthNet.uav[1] utilizationEnergyMission 150138.99429703
scalar OsgEarthNet.uav[1] utilizationEnergyMaintenance 82381.977905273
scalar OsgEarthNet.uav[1] utilizationEnergyCharge 229146.04223633
scalar OsgEarthNet.uav[1] utilizationEnergyOverdrawMission 0
scalar OsgEarthNet.uav[1] utilizationEnergyOverdrawMaintenance 0
scalar OsgEarthNet.uav[1] utilizationCountMissions 56
scalar OsgEarthNet.uav[1] utilizationCountManeuversMission 911
scalar OsgEarthNet.uav[1] utilizationCountManeuversMaintenance 111
scalar OsgEarthNet.uav[1] utilizationCountChargeState 56
scalar OsgEarthNet.uav[1] utilizationCountOverdrawnAfterMission 0
scalar OsgEarthNet.uav[1] utilizationCountIdleState 54
scalar OsgEarthNet.uav[1] utilizationFail 0
scalar OsgEarthNet.uav[1] simulationTime 259200
scalar OsgEarthNet.uav[2] utilizationSecMission 32194.635441561
scalar OsgEarthNet.uav[2] utilizationSecMaintenance 12686.789963643
scalar OsgEarthNet.uav[2] utilizationSecCharge 164670
scalar OsgEarthNet.uav[2] utilizationSecIdle 49648.573594796
scalar OsgEarthNet.uav[2] utilizationEnergyMission 155041.7010789
scalar OsgEarthNet.uav[2] utilizationEnergyMaintenance 58747.656238556
scalar OsgEarthNet.uav[2] utilizationEnergyCharge 213658.69140625
scalar OsgEarthNet.uav[2] utilizationEnergyOverdrawMission 0
scalar OsgEarthNet.uav[2] utilizationEnergyOverdrawMaintenance 0
scalar OsgEarthNet.uav[2] utilizationCountMissions 46
scalar OsgEarthNet.uav[2] utilizationCountManeuversMission 1025
scalar OsgEarthNet.uav[2] utilizationCountManeuversMaintenance 93
scalar OsgEarthNet.uav[2] utilizationCountChargeState 46
scalar OsgEarthNet.uav[2] utilizationCountOverdrawnAfterMission 0
scalar OsgEarthNet.uav[2] utilizationCountIdleState 47
scalar OsgEarthNet.uav[2] utilizationFail 0
scalar OsgEarthNet.uav[2] simulationTime 259200
scalar OsgEarthNet.uav[3] utilizationSecMission 28591.435898097
scalar OsgEarthNet.uav[3] utilizationSecMaintenance 17807.7759298
scalar OsgEarthNet.uav[3] utilizationSecCharge 179320
scalar OsgEarthNet.uav[3] utilizationSecIdle 33480.787172104
scalar OsgEarthNet.uav[3] utilizationEnergyMission 137147.82935149
scalar OsgEarthNet.uav[3] utilizationEnergyMaintenance 84598.221111298
scalar OsgEarthNet.uav[3] utilizationEnergyCharge 222705.02514648
scalar OsgEarthNet.uav[3] utilizationEnergyOverdrawMission 0
scalar OsgEarthNet.uav[3] utilizationEnergyOverdrawMaintenance 0
scalar OsgEarthNet.uav[3] utilizationCountMissions 56
scalar OsgEarthNet.uav[3] utilizationCountManeuversMission 840
scalar OsgEarthNet.uav[3] utilizationCountManeuversMaintenance 113
scalar OsgEarthNet.uav[3] utilizationCountChargeState 56
scalar OsgEarthNet.uav[3] utilizationCountOverdrawnAfterMission 0
scalar OsgEarthNet.uav[3] utilizationCountIdleState 55
scalar OsgEarthNet.uav[3] utilizationFail 0
scalar OsgEarthNet.uav[3] simulationTime 259200
scalar OsgEarthNet.uav[4] utilizationSecMission 29807.410022428
scalar OsgEarthNet.uav[4] utilizationSecMaintenance 17812.031104301
scalar OsgEarthNet.uav[4] utilizationSecCharge 181019.50007808
scalar OsgEarthNet.uav[4] utilizationSecIdle 30561.057795193
scalar OsgEarthNet.uav[4] utilizationEnergyMission 144371.06506729
scalar OsgEarthNet.uav[4] utilizationEnergyMaintenance 83680.386844635
scalar OsgEarthNet.uav[4] utilizationEnergyCharge 225848.61364746
scalar OsgEarthNet.uav[4] utilizationEnergyOverdrawMission 0
scalar OsgEarthNet.uav[4] utilizationEnergyOverdrawMaintenance 0
scalar OsgEarthNet.uav[4] utilizationCountMissions 57
scalar OsgEarthNet.uav[4] utilizationCountManeuversMission 841
scalar OsgEarthNet.uav[4] utilizationCountManeuversMaintenance 114
scalar OsgEarthNet.uav[4] utilizationCountChargeState 57
scalar OsgEarthNet.uav[4] utilizationCountOverdrawnAfterMission 0
scalar OsgEarthNet.uav[4] utilizationCountIdleState 57
scalar OsgEarthNet.uav[4] utilizationFail 0
scalar OsgEarthNet.uav[4] simulationTime 259200
scalar OsgEarthNet.uav[5] utilizationSecMission 26818.342342507
scalar OsgEarthNet.uav[5] utilizationSecMaintenance 11229.656657493
scalar OsgEarthNet.uav[5] utilizationSecCharge 138270
scalar OsgEarthNet.uav[5] utilizationSecIdle 82882
scalar OsgEarthNet.uav[5] utilizationEnergyMission 129725.8883993
scalar OsgEarthNet.uav[5] utilizationEnergyMaintenance 52297.577396393
scalar OsgEarthNet.uav[5] utilizationEnergyCharge 179222.87646484
scalar OsgEarthNet.uav[5] utilizationEnergyOverdrawMission 0
scalar OsgEarthNet.uav[5] utilizationEnergyOverdrawMaintenance 0
scalar OsgEarthNet.uav[5] utilizationCountMissions 39
scalar OsgEarthNet.uav[5] utilizationCountManeuversMission 897
scalar OsgEarthNet.uav[5] utilizationCountManeuversMaintenance 78
scalar OsgEarthNet.uav[5] utilizationCountChargeState 39
scalar OsgEarthNet.uav[5] utilizationCountOverdrawnAfterMission 0
scalar OsgEarthNet.uav[5] utilizationCountIdleState 39
scalar OsgEarthNet.uav[5] utilizationFail 0
scalar OsgEarthNet.uav[5] simulationTime 259200
scalar OsgEarthNet.uav[6] utilizationSecMission 1700.6251525803
scalar OsgEarthNet.uav[6] utilizationSecMaintenance 1087.7482372535
scalar OsgEarthNet.uav[6] utilizationSecCharge 10490
scalar OsgEarthNet.uav[6] utilizationSecIdle 245921.62561017
scalar OsgEarthNet.uav[6] utilizationEnergyMission 8546.648021698
scalar OsgEarthNet.uav[6] utilizationEnergyMaintenance 5074.2532691955
scalar OsgEarthNet.uav[6] utilizationEnergyCharge 13487.794433594
scalar OsgEarthNet.uav[6] utilizationEnergyOverdrawMission 0
scalar OsgEarthNet.uav[6] utilizationEnergyOverdrawMaintenance 0
scalar OsgEarthNet.uav[6] utilizationCountMissions 3
scalar OsgEarthNet.uav[6] utilizationCountManeuversMission 59
scalar OsgEarthNet.uav[6] utilizationCountManeuversMaintenance 6
scalar OsgEarthNet.uav[6] utilizationCountChargeState 3
scalar OsgEarthNet.uav[6] utilizationCountOverdrawnAfterMission 0
scalar OsgEarthNet.uav[6] utilizationCountIdleState 4
scalar OsgEarthNet.uav[6] utilizationFail 0
scalar OsgEarthNet.uav[6] simulationTime 259200
scalar OsgEarthNet.uav[7] utilizationSecMission 31299.181387717
scalar OsgEarthNet.uav[7] utilizationSecMaintenance 17031.376765755
scalar OsgEarthNet.uav[7] utilizationSecCharge 182977.43984653
scalar OsgEarthNet.uav[7] utilizationSecIdle 27892.001
scalar OsgEarthNet.uav[7] utilizationEnergyMission 151753.83255768
scalar OsgEarthNet.uav[7] utilizationEnergyMaintenance 81402.361888885
scalar OsgEarthNet.uav[7] utilizationEnergyCharge 230578.85913086
scalar OsgEarthNet.uav[7] utilizationEnergyOverdrawMission 0
scalar OsgEarthNet.uav[7] utilizationEnergyOverdrawMaintenance 0
scalar OsgEarthNet.uav[7] utilizationCountMissions 56
scalar OsgEarthNet.uav[7] utilizationCountManeuversMission 906
scalar OsgEarthNet.uav[7] utilizationCountManeuversMaintenance 112
scalar OsgEarthNet.uav[7] utilizationCountChargeState 56
scalar OsgEarthNet.uav[7] utilizationCountOverdrawnAfterMission 0
scalar OsgEarthNet.uav[7] utilizationCountIdleState 56
scalar OsgEarthNet.uav[7] utilizationFail 0
scalar OsgEarthNet.uav[7] simulationTime 259200
scalar OsgEarthNet.uav[8] utilizationSecMission 29454.980505785
scalar OsgEarthNet.uav[8] utilizationSecMaintenance 12586.755116335
scalar OsgEarthNet.uav[8] utilizationSecCharge 155216.26237788
scalar OsgEarthNet.uav[8] utilizationSecIdle 61942.001
scalar OsgEarthNet.uav[8] utilizationEnergyMission 147205.45444107
scalar OsgEarthNet.uav[8] utilizationEnergyMaintenance 58255.358963013
scalar OsgEarthNet.uav[8] utilizationEnergyCharge 201605.72802734
scalar OsgEarthNet.uav[8] utilizationEnergyOverdrawMission 0
scalar OsgEarthNet.uav[8] utilizationEnergyOverdrawMaintenance 0
scalar OsgEarthNet.uav[8] utilizationCountMissions 44
scalar OsgEarthNet.uav[8] utilizationCountManeuversMission 1012
scalar OsgEarthNet.uav[8] utilizationCountManeuversMaintenance 88
scalar OsgEarthNet.uav[8] utilizationCountChargeState 44
scalar OsgEarthNet.uav[8] utilizationCountOverdrawnAfterMission 0
scalar OsgEarthNet.uav[8] utilizationCountIdleState 43
scalar OsgEarthNet.uav[8] utilizationFail 0
scalar OsgEarthNet.uav[8] simulationTime 259200
scalar OsgEarthNet.uav[9] utilizationSecMission 2401.2503051606
scalar OsgEarthNet.uav[9] utilizationSecMaintenance 1280.9344473898
scalar OsgEarthNet.uav[9] utilizationSecCharge 13910
scalar OsgEarthNet.uav[9] utilizationSecIdle 241607.81424745
scalar OsgEarthNet.uav[9] utilizationEnergyMission 11529.708950043
scalar OsgEarthNet.uav[9] utilizationEnergyMaintenance 5961.7825775146
scalar OsgEarthNet.uav[9] utilizationEnergyCharge 17846.471679688
scalar OsgEarthNet.uav[9] utilizationEnergyOverdrawMission 0
scalar OsgEarthNet.uav[9] utilizationEnergyOverdrawMaintenance 0
scalar OsgEarthNet.uav[9] utilizationCountMissions 4
scalar OsgEarthNet.uav[9] utilizationCountManeuversMission 68
scalar OsgEarthNet.uav[9] utilizationCountManeuversMaintenance 8
scalar OsgEarthNet.uav[9] utilizationCountChargeState 4
scalar OsgEarthNet.uav[9] utilizationCountOverdrawnAfterMission 0
scalar OsgEarthNet.uav[9] utilizationCountIdleState 5
scalar OsgEarthNet.uav[9] utilizationFail 0
scalar OsgEarthNet.uav[9] simulationTime 259200
scalar OsgEarthNet.uav[10] utilizationSecMission 9099.3965429674
scalar OsgEarthNet.uav[10] utilizationSecMaintenance 6778.1545709592
scalar OsgEarthNet.uav[10] utilizationSecCharge 59560
scalar OsgEarthNet.uav[10] utilizationSecIdle 183762.44788607
scalar OsgEarthNet.uav[10] utilizationEnergyMission 45806.326742481
scalar OsgEarthNet.uav[10] utilizationEnergyMaintenance 32317.524089813
scalar OsgEarthNet.uav[10] utilizationEnergyCharge 76565.435546875
scalar OsgEarthNet.uav[10] utilizationEnergyOverdrawMission 0
scalar OsgEarthNet.uav[10] utilizationEnergyOverdrawMaintenance 0
scalar OsgEarthNet.uav[10] utilizationCountMissions 17
scalar OsgEarthNet.uav[10] utilizationCountManeuversMission 349
scalar OsgEarthNet.uav[10] utilizationCountManeuversMaintenance 35
scalar OsgEarthNet.uav[10] utilizationCountChargeState 17
scalar OsgEarthNet.uav[10] utilizationCountOverdrawnAfterMission 0
scalar OsgEarthNet.uav[10] utilizationCountIdleState 18
scalar OsgEarthNet.uav[10] utilizationFail 0
scalar OsgEarthNet.uav[10] simulationTime 259200
scalar OsgEarthNet.uav[11] utilizationSecMission 30543.983344613
scalar OsgEarthNet.uav[11] utilizationSecMaintenance 18004.012655387
scalar OsgEarthNet.uav[11] utilizationSecCharge 184060
scalar OsgEarthNet.uav[11] utilizationSecIdle 26592.003
scalar OsgEarthNet.uav[11] utilizationEnergyMission 147751.30828394
scalar OsgEarthNet.uav[11] utilizationEnergyMaintenance 84919.541687012
scalar OsgEarthNet.uav[11] utilizationEnergyCharge 231135.92773438
scalar OsgEarthNet.uav[11] utilizationEnergyOverdrawMission 0
scalar OsgEarthNet.uav[11] utilizationEnergyOverdrawMaintenance 0
scalar OsgEarthNet.uav[11] utilizationCountMissions 56
scalar OsgEarthNet.uav[11] utilizationCountManeuversMission 938
scalar OsgEarthNet.uav[11] utilizationCountManeuversMaintenance 113
scalar OsgEarthNet.uav[11] utilizationCountChargeState 56
scalar OsgEarthNet.uav[11] utilizationCountOverdrawnAfterMission 0
scalar OsgEarthNet.uav[11] utilizationCountIdleState 56
scalar OsgEarthNet.uav[11] utilizationFail 0
scalar OsgEarthNet.uav[11] simulationTime 259200
scalar OsgEarthNet.uav[12] utilizationSecMission 31418.295263883
scalar OsgEarthNet.uav[12] utilizationSecMaintenance 13179.703736117
scalar OsgEarthNet.uav[12] utilizationSecCharge 162910
scalar OsgEarthNet.uav[12] utilizationSecIdle 51692
scalar OsgEarthNet.uav[12] utilizationEnergyMission 152841.10207385
scalar OsgEarthNet.uav[12] utilizationEnergyMaintenance 60657.600288391
scalar OsgEarthNet.uav[12] utilizationEnergyCharge 211541.63671875
scalar OsgEarthNet.uav[12] utilizationEnergyOverdrawMission 0
scalar OsgEarthNet.uav[12] utilizationEnergyOverdrawMaintenance 0
scalar OsgEarthNet.uav[12] utilizationCountMissions 46
scalar OsgEarthNet.uav[12] utilizationCountManeuversMission 1110
scalar OsgEarthNet.uav[12] utilizationCountManeuversMaintenance 93
scalar OsgEarthNet.uav[12] utilizationCountChargeState 46
scalar OsgEarthNet.uav[12] utilizationCountOverdrawnAfterMission 0
scalar OsgEarthNet.uav[12] utilizationCountIdleState 46
scalar OsgEarthNet.uav[12] utilizationFail 0
scalar OsgEarthNet.uav[12] simulationTime 259200
scalar OsgEarthNet.uav[13] utilizationSecMission 14757.868944793
scalar OsgEarthNet.uav[13] utilizationSecMaintenance 7815.4496503788
scalar OsgEarthNet.uav[13] utilizationSecCharge 84370
scalar OsgEarthNet.uav[13] utilizationSecIdle 152256.68040483
scalar OsgEarthNet.uav[13] utilizationEnergyMission 70757.249042511
scalar OsgEarthNet.uav[13] utilizationEnergyMaintenance 36641.802520752
scalar OsgEarthNet.uav[13] utilizationEnergyCharge 108563.22949219
scalar OsgEarthNet.uav[13] utilizationEnergyOverdrawMission 0
scalar OsgEarthNet.uav[13] utilizationEnergyOverdrawMaintenance 0
scalar OsgEarthNet.uav[13] utilizationCountMissions 24
scalar OsgEarthNet.uav[13] utilizationCountManeuversMission 404
scalar OsgEarthNet.uav[13] utilizationCountManeuversMaintenance 48
scalar OsgEarthNet.uav[13] utilizationCountChargeState 24
scalar OsgEarthNet.uav[13] utilizationCountOverdrawnAfterMission 0
scalar OsgEarthNet.uav[13] utilizationCountIdleState 25
scalar OsgEarthNet.uav[13] utilizationFail 0
scalar OsgEarthNet.uav[13] simulationTime 259200
scalar OsgEarthNet.uav[14] utilizationSecMission 29986.060040978
scalar OsgEarthNet.uav[14] utilizationSecMaintenance 14158.494870331
scalar OsgEarthNet.uav[14] utilizationSecCharge 163260
scalar OsgEarthNet.uav[14] utilizationSecIdle 51795.444088691
scalar OsgEarthNet.uav[14] utilizationEnergyMission 148746.41137187
scalar OsgEarthNet.uav[14] utilizationEnergyMaintenance 64443.928291321
scalar OsgEarthNet.uav[14] utilizationEnergyCharge 210791.62158203
scalar OsgEarthNet.uav[14] utilizationEnergyOverdrawMission 0
scalar OsgEarthNet.uav[14] utilizationEnergyOverdrawMaintenance 0
scalar OsgEarthNet.uav[14] utilizationCountMissions 46
scalar OsgEarthNet.uav[14] utilizationCountManeuversMission 1058
scalar OsgEarthNet.uav[14] utilizationCountManeuversMaintenance 93
scalar OsgEarthNet.uav[14] utilizationCountChargeState 46
scalar OsgEarthNet.uav[14] utilizationCountOverdrawnAfterMission 0
scalar OsgEarthNet.uav[14] utilizationCountIdleState 47
scalar OsgEarthNet.uav[14] utilizationFail 0
scalar OsgEarthNet.uav[14] simulationTime 259200
scalar OsgEarthNet.uav[15] utilizationSecMission 29940.538980347
scalar OsgEarthNet.uav[15] utilizationSecMaintenance 15164.230567546
scalar OsgEarthNet.uav[15] utilizationSecCharge 165795.39263807
scalar OsgEarthNet.uav[15] utilizationSecIdle 48299.83681404
scalar OsgEarthNet.uav[15] utilizationEnergyMission 149055.06361008
scalar OsgEarthNet.uav[15] utilizationEnergyMaintenance 70014.318786621
scalar OsgEarthNet.uav[15] utilizationEnergyCharge 213876.8581543
scalar OsgEarthNet.uav[15] utilizationEnergyOverdrawMission 0
scalar OsgEarthNet.uav[15] utilizationEnergyOverdrawMaintenance 0
scalar OsgEarthNet.uav[15] utilizationCountMissions 48
scalar OsgEarthNet.uav[15] utilizationCountManeuversMission 1137
scalar OsgEarthNet.uav[15] utilizationCountManeuversMaintenance 96
scalar OsgEarthNet.uav[15] utilizationCountChargeState 48
scalar OsgEarthNet.uav[15] utilizationCountOverdrawnAfterMission 0
scalar OsgEarthNet.uav[15] utilizationCountIdleState 48
scalar OsgEarthNet.uav[15] utilizationFail 0
scalar OsgEarthNet.uav[15] simulationTime 259200
scalar OsgEarthNet.uav[16] utilizationSecMission 18728.752136124
scalar OsgEarthNet.uav[16] utilizationSecMaintenance 10719.233863876
scalar OsgEarthNet.uav[16] utilizationSecCharge 106020
scalar OsgEarthNet.uav[16] utilizationSecIdle 123732.013
scalar OsgEarthNet.uav[16] utilizationEnergyMission 89985.254364014
scalar OsgEarthNet.uav[16] utilizationEnergyMaintenance 51395.247947668
scalar OsgEarthNet.uav[16] utilizationEnergyCharge 136694.20117188
scalar OsgEarthNet.uav[16] utilizationEnergyOverdrawMission 0
scalar OsgEarthNet.uav[16] utilizationEnergyOverdrawMaintenance 0
scalar OsgEarthNet.uav[16] utilizationCountMissions 31
scalar OsgEarthNet.uav[16] utilizationCountManeuversMission 572
scalar OsgEarthNet.uav[16] utilizationCountManeuversMaintenance 62
scalar OsgEarthNet.uav[16] utilizationCountChargeState 30
scalar OsgEarthNet.uav[16] utilizationCountOverdrawnAfterMission 0
scalar OsgEarthNet.uav[16] utilizationCountIdleState 31
scalar OsgEarthNet.uav[16] utilizationFail 0
scalar OsgEarthNet.uav[16] simulationTime 259200
scalar OsgEarthNet.uav[17] utilizationSecMission 31449.780764462
scalar OsgEarthNet.uav[17] utilizationSecMaintenance 15248.168056986
scalar OsgEarthNet.uav[17] utilizationSecCharge 172680.04317855
scalar OsgEarthNet.uav[17] utilizationSecIdle 39822.007
scalar OsgEarthNet.uav[17] utilizationEnergyMission 151211.47850418
scalar OsgEarthNet.uav[17] utilizationEnergyMaintenance 70910.803833008
scalar OsgEarthNet.uav[17] utilizationEnergyCharge 219155.84765625
scalar OsgEarthNet.uav[17] utilizationEnergyOverdrawMission 0
scalar OsgEarthNet.uav[17] utilizationEnergyOverdrawMaintenance 0
scalar OsgEarthNet.uav[17] utilizationCountMissions 52
scalar OsgEarthNet.uav[17] utilizationCountManeuversMission 908
scalar OsgEarthNet.uav[17] utilizationCountManeuversMaintenance 104
scalar OsgEarthNet.uav[17] utilizationCountChargeState 52
scalar OsgEarthNet.uav[17] utilizationCountOverdrawnAfterMission 0
scalar OsgEarthNet.uav[17] utilizationCountIdleState 52
scalar OsgEarthNet.uav[17] utilizationFail 0
scalar OsgEarthNet.uav[17] simulationTime 259200
scalar OsgEarthNet.uav[18] utilizationSecMission 31675.742198705
scalar OsgEarthNet.uav[18] utilizationSecMaintenance 12646.281091082
scalar OsgEarthNet.uav[18] utilizationSecCharge 164940
scalar OsgEarthNet.uav[18] utilizationSecIdle 49937.975710213
scalar OsgEarthNet.uav[18] utilizationEnergyMission 155588.35783386
scalar OsgEarthNet.uav[18] utilizationEnergyMaintenance 58375.251991272
scalar OsgEarthNet.uav[18] utilizationEnergyCharge 214576.95068359
scalar OsgEarthNet.uav[18] utilizationEnergyOverdrawMission 0
scalar OsgEarthNet.uav[18] utilizationEnergyOverdrawMaintenance 0
scalar OsgEarthNet.uav[18] utilizationCountMissions 46
scalar OsgEarthNet.uav[18] utilizationCountManeuversMission 1009
scalar OsgEarthNet.uav[18] utilizationCountManeuversMaintenance 92
scalar OsgEarthNet.uav[18] utilizationCountChargeState 46
scalar OsgEarthNet.uav[18] utilizationCountOverdrawnAfterMission 0
scalar OsgEarthNet.uav[18] utilizationCountIdleState 46
scalar OsgEarthNet.uav[18] utilizationFail 0
scalar OsgEarthNet.uav[18] simulationTime 259200
scalar OsgEarthNet.uav[19] utilizationSecMission 16794.335361362
scalar OsgEarthNet.uav[19] utilizationSecMaintenance 11903.652638638
scalar OsgEarthNet.uav[19] utilizationSecCharge 105890
scalar OsgEarthNet.uav[19] utilizationSecIdle 124612.011
scalar OsgEarthNet.uav[19] utilizationEnergyMission 83145.048590521
scalar OsgEarthNet.uav[19] utilizationEnergyMaintenance 56780.972755432
scalar OsgEarthNet.uav[19] utilizationEnergyCharge 136461.45947266
scalar OsgEarthNet.uav[19] utilizationEnergyOverdrawMission 0
scalar OsgEarthNet.uav[19] utilizationEnergyOverdrawMaintenance 0
scalar OsgEarthNet.uav[19] utilizationCountMissions 30
scalar OsgEarthNet.uav[19] utilizationCountManeuversMission 632
scalar OsgEarthNet.uav[19] utilizationCountManeuversMaintenance 61
scalar OsgEarthNet.uav[19] utilizationCountChargeState 30
scalar OsgEarthNet.uav[19] utilizationCountOverdrawnAfterMission 0
scalar OsgEarthNet.uav[19] utilizationCountIdleState 31
scalar OsgEarthNet.uav[19] utilizationFail 0
scalar OsgEarthNet.uav[19] simulationTime 259200
scalar OsgEarthNet.uav[20] utilizationSecMission 27842.621970601
scalar OsgEarthNet.uav[20] utilizationSecMaintenance 17176.428895402
scalar OsgEarthNet.uav[20] utilizationSecCharge 169628.947134
scalar OsgEarthNet.uav[20] utilizationSecIdle 44552.001
scalar OsgEarthNet.uav[20] utilizationEnergyMission 135135.53230667
scalar OsgEarthNet.uav[20] utilizationEnergyMaintenance 81076.680301666
scalar OsgEarthNet.uav[20] utilizationEnergyCharge 215142.44213867
scalar OsgEarthNet.uav[20] utilizationEnergyOverdrawMission 0
scalar OsgEarthNet.uav[20] utilizationEnergyOverdrawMaintenance 0
scalar OsgEarthNet.uav[20] utilizationCountMissions 51
scalar OsgEarthNet.uav[20] utilizationCountManeuversMission 868
scalar OsgEarthNet.uav[20] utilizationCountManeuversMaintenance 102
scalar OsgEarthNet.uav[20] utilizationCountChargeState 51
scalar OsgEarthNet.uav[20] utilizationCountOverdrawnAfterMission 0
scalar OsgEarthNet.uav[20] utilizationCountIdleState 51
scalar OsgEarthNet.uav[20] utilizationFail 0
scalar OsgEarthNet.uav[20] simulationTime 259200
scalar OsgEarthNet.uav[21] utilizationSecMission 28817.788378516
scalar OsgEarthNet.uav[21] utilizationSecMaintenance 18254.208795254
scalar OsgEarthNet.uav[21] utilizationSecCharge 182060
scalar OsgEarthNet.uav[21] utilizationSecIdle 30068.00182623
scalar OsgEarthNet.uav[21] utilizationEnergyMission 138309.29118935
scalar OsgEarthNet.uav[21] utilizationEnergyMaintenance 86816.369743347
scalar OsgEarthNet.uav[21] utilizationEnergyCharge 227541.90869141
scalar OsgEarthNet.uav[21] utilizationEnergyOverdrawMission 0
scalar OsgEarthNet.uav[21] utilizationEnergyOverdrawMaintenance 0
scalar OsgEarthNet.uav[21] utilizationCountMissions 56
scalar OsgEarthNet.uav[21] utilizationCountManeuversMission 910
scalar OsgEarthNet.uav[21] utilizationCountManeuversMaintenance 113
scalar OsgEarthNet.uav[21] utilizationCountChargeState 56
scalar OsgEarthNet.uav[21] utilizationCountOverdrawnAfterMission 0
scalar OsgEarthNet.uav[21] utilizationCountIdleState 57
scalar OsgEarthNet.uav[21] utilizationFail 0
scalar OsgEarthNet.uav[21] simulationTime 259200
scalar OsgEarthNet.uav[22] utilizationSecMission 31168.416503476
scalar OsgEarthNet.uav[22] utilizationSecMaintenance 14651.18231648
scalar OsgEarthNet.uav[22] utilizationSecCharge 165638.39818004
scalar OsgEarthNet.uav[22] utilizationSecIdle 47742.002
scalar OsgEarthNet.uav[22] utilizationEnergyMission 152796.57413483
scalar OsgEarthNet.uav[22] utilizationEnergyMaintenance 66446.050029755
scalar OsgEarthNet.uav[22] utilizationEnergyCharge 214767.00613403
scalar OsgEarthNet.uav[22] utilizationEnergyOverdrawMission 0
scalar OsgEarthNet.uav[22] utilizationEnergyOverdrawMaintenance 0
scalar OsgEarthNet.uav[22] utilizationCountMissions 48
scalar OsgEarthNet.uav[22] utilizationCountManeuversMission 1183
scalar OsgEarthNet.uav[22] utilizationCountManeuversMaintenance 96
scalar OsgEarthNet.uav[22] utilizationCountChargeState 48
scalar OsgEarthNet.uav[22] utilizationCountOverdrawnAfterMission 0
scalar OsgEarthNet.uav[22] utilizationCountIdleState 47
scalar OsgEarthNet.uav[22] utilizationFail 0
scalar OsgEarthNet.uav[22] simulationTime 259200
scalar OsgEarthNet.uav[23] utilizationSecMission 23059.119249954
scalar OsgEarthNet.uav[23] utilizationSecMaintenance 14378.47886237
scalar OsgEarthNet.uav[23] utilizationSecCharge 139980
scalar OsgEarthNet.uav[23] utilizationSecIdle 81782.400887676
scalar OsgEarthNet.uav[23] utilizationEnergyMission 113102.69701385
scalar OsgEarthNet.uav[23] utilizationEnergyMaintenance 68584.061859131
scalar OsgEarthNet.uav[23] utilizationEnergyCharge 180030.63183594
scalar OsgEarthNet.uav[23] utilizationEnergyOverdrawMission 0
scalar OsgEarthNet.uav[23] utilizationEnergyOverdrawMaintenance 0
scalar OsgEarthNet.uav[23] utilizationCountMissions 40
scalar OsgEarthNet.uav[23] utilizationCountManeuversMission 767
scalar OsgEarthNet.uav[23] utilizationCountManeuversMaintenance 80
scalar OsgEarthNet.uav[23] utilizationCountChargeState 40
scalar OsgEarthNet.uav[23] utilizationCountOverdrawnAfterMission 0
scalar OsgEarthNet.uav[23] utilizationCountIdleState 41
scalar OsgEarthNet.uav[23] utilizationFail 0
scalar OsgEarthNet.uav[23] simulationTime 259200
scalar OsgEarthNet.uav[24] utilizationSecMission 31906.944100084
scalar OsgEarthNet.uav[24] utilizationSecMaintenance 16461.052899916
scalar OsgEarthNet.uav[24] utilizationSecCharge 181110
scalar OsgEarthNet.uav[24] utilizationSecIdle 29722.002
scalar OsgEarthNet.uav[24] utilizationEnergyMission 153874.0255394
scalar OsgEarthNet.uav[24] utilizationEnergyMaintenance 78508.174411251
scalar OsgEarthNet.uav[24] utilizationEnergyCharge 227256.72949219
scalar OsgEarthNet.uav[24] utilizationEnergyOverdrawMission 0
scalar OsgEarthNet.uav[24] utilizationEnergyOverdrawMaintenance 0
scalar OsgEarthNet.uav[24] utilizationCountMissions 56
scalar OsgEarthNet.uav[24] utilizationCountManeuversMission 902
scalar OsgEarthNet.uav[24] utilizationCountManeuversMaintenance 112
scalar OsgEarthNet.uav[24] utilizationCountChargeState 55
scalar OsgEarthNet.uav[24] utilizationCountOverdrawnAfterMission 0
scalar OsgEarthNet.uav[24] utilizationCountIdleState 56
scalar OsgEarthNet.uav[24] utilizationFail 0
scalar OsgEarthNet.uav[24] simulationTime 259200
scalar OsgEarthNet.uav[25] utilizationSecMission 33891.390497097
scalar OsgEarthNet.uav[25] utilizationSecMaintenance 12200.082547765
scalar OsgEarthNet.uav[25] utilizationSecCharge 165016.52095514
scalar OsgEarthNet.uav[25] utilizationSecIdle 48092.005
scalar OsgEarthNet.uav[25] utilizationEnergyMission 162564.18996048
scalar OsgEarthNet.uav[25] utilizationEnergyMaintenance 55548.926044464
scalar OsgEarthNet.uav[25] utilizationEnergyCharge 214457.96142578
scalar OsgEarthNet.uav[25] utilizationEnergyOverdrawMission 0
scalar OsgEarthNet.uav[25] utilizationEnergyOverdrawMaintenance 0
scalar OsgEarthNet.uav[25] utilizationCountMissions 47
scalar OsgEarthNet.uav[25] utilizationCountManeuversMission 950
scalar OsgEarthNet.uav[25] utilizationCountManeuversMaintenance 94
scalar OsgEarthNet.uav[25] utilizationCountChargeState 47
scalar OsgEarthNet.uav[25] utilizationCountOverdrawnAfterMission 0
scalar OsgEarthNet.uav[25] utilizationCountIdleState 47
scalar OsgEarthNet.uav[25] utilizationFail 0
scalar OsgEarthNet.uav[25] simulationTime 259200
scalar OsgEarthNet.uav[26] utilizationSecMission 32287.599221424
scalar OsgEarthNet.uav[26] utilizationSecMaintenance 13140.552300146
scalar OsgEarthNet.uav[26] utilizationSecCharge 165769.49700511
scalar OsgEarthNet.uav[26] utilizationSecIdle 48002.350473324
scalar OsgEarthNet.uav[26] utilizationEnergyMission 155669.13333893
scalar OsgEarthNet.uav[26] utilizationEnergyMaintenance 61249.240158081
scalar OsgEarthNet.uav[26] utilizationEnergyCharge 215569.15820312
scalar OsgEarthNet.uav[26] utilizationEnergyOverdrawMission 0
scalar OsgEarthNet.uav[26] utilizationEnergyOverdrawMaintenance 0
scalar OsgEarthNet.uav[26] utilizationCountMissions 47
scalar OsgEarthNet.uav[26] utilizationCountManeuversMission 986
scalar OsgEarthNet.uav[26] utilizationCountManeuversMaintenance 94
scalar OsgEarthNet.uav[26] utilizationCountChargeState 47
scalar OsgEarthNet.uav[26] utilizationCountOverdrawnAfterMission 0
scalar OsgEarthNet.uav[26] utilizationCountIdleState 47
scalar OsgEarthNet.uav[26] utilizationFail 0
scalar OsgEarthNet.uav[26] simulationTime 259200
scalar OsgEarthNet.uav[27] utilizationSecMission 29660.570096739
scalar OsgEarthNet.uav[27] utilizationSecMaintenance 18318.035072074
scalar OsgEarthNet.uav[27] utilizationSecCharge 184146.78194167
scalar OsgEarthNet.uav[27] utilizationSecIdle 27074.611889516
scalar OsgEarthNet.uav[27] utilizationEnergyMission 145764.64081192
scalar OsgEarthNet.uav[27] utilizationEnergyMaintenance 87354.172222137
scalar OsgEarthNet.uav[27] utilizationEnergyCharge 231828.31713867
scalar OsgEarthNet.uav[27] utilizationEnergyOverdrawMission 0
scalar OsgEarthNet.uav[27] utilizationEnergyOverdrawMaintenance 0
scalar OsgEarthNet.uav[27] utilizationCountMissions 56
scalar OsgEarthNet.uav[27] utilizationCountManeuversMission 990
scalar OsgEarthNet.uav[27] utilizationCountManeuversMaintenance 112
scalar OsgEarthNet.uav[27] utilizationCountChargeState 56
scalar OsgEarthNet.uav[27] utilizationCountOverdrawnAfterMission 0
scalar OsgEarthNet.uav[27] utilizationCountIdleState 55
scalar OsgEarthNet.uav[27] utilizationFail 0
scalar OsgEarthNet.uav[27] simulationTime 259200
scalar OsgEarthNet.uav[28] utilizationSecMission 32531.957961427
scalar OsgEarthNet.uav[28] utilizationSecMaintenance 13431.533673569
scalar OsgEarthNet.uav[28] utilizationSecCharge 166824.504365
scalar OsgEarthNet.uav[28] utilizationSecIdle 46412.003
scalar OsgEarthNet.uav[28] utilizationEnergyMission 158769.92835617
scalar OsgEarthNet.uav[28] utilizationEnergyMaintenance 61999.071777344
scalar OsgEarthNet.uav[28] utilizationEnergyCharge 216233.39190674
scalar OsgEarthNet.uav[28] utilizationEnergyOverdrawMission 0
scalar OsgEarthNet.uav[28] utilizationEnergyOverdrawMaintenance 0
scalar OsgEarthNet.uav[28] utilizationCountMissions 48
scalar OsgEarthNet.uav[28] utilizationCountManeuversMission 1038
scalar OsgEarthNet.uav[28] utilizationCountManeuversMaintenance 96
scalar OsgEarthNet.uav[28] utilizationCountChargeState 48
scalar OsgEarthNet.uav[28] utilizationCountOverdrawnAfterMission 0
scalar OsgEarthNet.uav[28] utilizationCountIdleState 47
scalar OsgEarthNet.uav[28] utilizationFail 0
scalar OsgEarthNet.uav[28] simulationTime 259200
scalar OsgEarthNet.uav[29] utilizationSecMission 24950.627593865
scalar OsgEarthNet.uav[29] utilizationSecMaintenance 15461.324296184
scalar OsgEarthNet.uav[29] utilizationSecCharge 150485.28113602
scalar OsgEarthNet.uav[29] utilizationSecIdle 68302.765973934
scalar OsgEarthNet.uav[29] utilizationEnergyMission 122283.70562363
scalar OsgEarthNet.uav[29] utilizationEnergyMaintenance 73172.762508392
scalar OsgEarthNet.uav[29] utilizationEnergyCharge 194827.36645508
scalar OsgEarthNet.uav[29] utilizationEnergyOverdrawMission 0
scalar OsgEarthNet.uav[29] utilizationEnergyOverdrawMaintenance 0
scalar OsgEarthNet.uav[29] utilizationCountMissions 43
scalar OsgEarthNet.uav[29] utilizationCountManeuversMission 805
scalar OsgEarthNet.uav[29] utilizationCountManeuversMaintenance 86
scalar OsgEarthNet.uav[29] utilizationCountChargeState 43
scalar OsgEarthNet.uav[29] utilizationCountOverdrawnAfterMission 0
scalar OsgEarthNet.uav[29] utilizationCountIdleState 43
scalar OsgEarthNet.uav[29] utilizationFail 0
scalar OsgEarthNet.uav[29] simulationTime 259200
scalar OsgEarthNet.uav[30] utilizationSecMission 23269.893366205
scalar OsgEarthNet.uav[30] utilizationSecMaintenance 14628.69221318
scalar OsgEarthNet.uav[30] utilizationSecCharge 138347.08706891
scalar OsgEarthNet.uav[30] utilizationSecIdle 82954.326351708
scalar OsgEarthNet.uav[30] utilizationEnergyMission 112406.98884964
scalar OsgEarthNet.uav[30] utilizationEnergyMaintenance 69041.890228271
scalar OsgEarthNet.uav[30] utilizationEnergyCharge 178668.0335083
scalar OsgEarthNet.uav[30] utilizationEnergyOverdrawMission 0
scalar OsgEarthNet.uav[30] utilizationEnergyOverdrawMaintenance 0
scalar OsgEarthNet.uav[30] utilizationCountMissions 40
scalar OsgEarthNet.uav[30] utilizationCountManeuversMission 764
scalar OsgEarthNet.uav[30] utilizationCountManeuversMaintenance 80
scalar OsgEarthNet.uav[30] utilizationCountChargeState 40
scalar OsgEarthNet.uav[30] utilizationCountOverdrawnAfterMission 0
scalar OsgEarthNet.uav[30] utilizationCountIdleState 40
scalar OsgEarthNet.uav[30] utilizationFail 0
scalar OsgEarthNet.uav[30] simulationTime 259200
scalar OsgEarthNet.uav[31] utilizationSecMission 28037.606833515
scalar OsgEarthNet.uav[31] utilizationSecMaintenance 19443.906673044
scalar OsgEarthNet.uav[31] utilizationSecCharge 184386.47749344
scalar OsgEarthNet.uav[31] utilizationSecIdle 27332.008
scalar OsgEarthNet.uav[31] utilizationEnergyMission 139327.03700638
scalar OsgEarthNet.uav[31] utilizationEnergyMaintenance 92040.432170868
scalar OsgEarthNet.uav[31] utilizationEnergyCharge 231219.77392578
scalar OsgEarthNet.uav[31] utilizationEnergyOverdrawMission 0
scalar OsgEarthNet.uav[31] utilizationEnergyOverdrawMaintenance 0
scalar OsgEarthNet.uav[31] utilizationCountMissions 57
scalar OsgEarthNet.uav[31] utilizationCountManeuversMission 993
scalar OsgEarthNet.uav[31] utilizationCountManeuversMaintenance 114
scalar OsgEarthNet.uav[31] utilizationCountChargeState 57
scalar OsgEarthNet.uav[31] utilizationCountOverdrawnAfterMission 0
scalar OsgEarthNet.uav[31] utilizationCountIdleState 56
scalar OsgEarthNet.uav[31] utilizationFail 0
scalar OsgEarthNet.uav[31] simulationTime 259200
scalar OsgEarthNet.uav[32] utilizationSecMission 33582.960733539
scalar OsgEarthNet.uav[32] utilizationSecMaintenance 13436.887104803
scalar OsgEarthNet.uav[32] utilizationSecCharge 173358.14716166
scalar OsgEarthNet.uav[32] utilizationSecIdle 38822.004
scalar OsgEarthNet.uav[32] utilizationEnergyMission 162684.36590958
scalar OsgEarthNet.uav[32] utilizationEnergyMaintenance 61326.608379364
scalar OsgEarthNet.uav[32] utilizationEnergyCharge 225451.88964844
scalar OsgEarthNet.uav[32] utilizationEnergyOverdrawMission 0
scalar OsgEarthNet.uav[32] utilizationEnergyOverdrawMaintenance 0
scalar OsgEarthNet.uav[32] utilizationCountMissions 49
scalar OsgEarthNet.uav[32] utilizationCountManeuversMission 1083
scalar OsgEarthNet.uav[32] utilizationCountManeuversMaintenance 98
scalar OsgEarthNet.uav[32] utilizationCountChargeState 49
scalar OsgEarthNet.uav[32] utilizationCountOverdrawnAfterMission 0
scalar OsgEarthNet.uav[32] utilizationCountIdleState 49
scalar OsgEarthNet.uav[32] utilizationFail 0
scalar OsgEarthNet.uav[32] simulationTime 259200
scalar OsgEarthNet.uav[33] utilizationSecMission 23440.369555114
scalar OsgEarthNet.uav[33] utilizationSecMaintenance 14132.089794851
scalar OsgEarthNet.uav[33] utilizationSecCharge 138325.52565004
scalar OsgEarthNet.uav[33] utilizationSecIdle 83302.014
scalar OsgEarthNet.uav[33] utilizationEnergyMission 114359.83523941
scalar OsgEarthNet.uav[33] utilizationEnergyMaintenance 67016.974212646
scalar OsgEarthNet.uav[33] utilizationEnergyCharge 178465.65869141
scalar OsgEarthNet.uav[33] utilizationEnergyOverdrawMission 0
scalar OsgEarthNet.uav[33] utilizationEnergyOverdrawMaintenance 0
scalar OsgEarthNet.uav[33] utilizationCountMissions 40
scalar OsgEarthNet.uav[33] utilizationCountManeuversMission 734
scalar OsgEarthNet.uav[33] utilizationCountManeuversMaintenance 80
scalar OsgEarthNet.uav[33] utilizationCountChargeState 40
scalar OsgEarthNet.uav[33] utilizationCountOverdrawnAfterMission 0
scalar OsgEarthNet.uav[33] utilizationCountIdleState 40
scalar OsgEarthNet.uav[33] utilizationFail 0
scalar OsgEarthNet.uav[33] simulationTime 259200
scalar OsgEarthNet.uav[34] utilizationSecMission 33069.417440086
scalar OsgEarthNet.uav[34] utilizationSecMaintenance 13566.22672456
scalar OsgEarthNet.uav[34] utilizationSecCharge 170148.34959518
scalar OsgEarthNet.uav[34] utilizationSecIdle 42416.005240173
scalar OsgEarthNet.uav[34] utilizationEnergyMission 158436.94000244
scalar OsgEarthNet.uav[34] utilizationEnergyMaintenance 62840.727123261
scalar OsgEarthNet.uav[34] utilizationEnergyCharge 221094.43798828
scalar OsgEarthNet.uav[34] utilizationEnergyOverdrawMission 0
scalar OsgEarthNet.uav[34] utilizationEnergyOverdrawMaintenance 0
scalar OsgEarthNet.uav[34] utilizationCountMissions 48
scalar OsgEarthNet.uav[34] utilizationCountManeuversMission 1077
scalar OsgEarthNet.uav[34] utilizationCountManeuversMaintenance 96
scalar OsgEarthNet.uav[34] utilizationCountChargeState 48
scalar OsgEarthNet.uav[34] utilizationCountOverdrawnAfterMission 0
scalar OsgEarthNet.uav[34] utilizationCountIdleState 48
scalar OsgEarthNet.uav[34] utilizationFail 0
scalar OsgEarthNet.uav[34] simulationTime 259200
scalar OsgEarthNet.uav[35] utilizationSecMission 32802.564069002
scalar OsgEarthNet.uav[35] utilizationSecMaintenance 13310.226974024
scalar OsgEarthNet.uav[35] utilizationSecCharge 169295.20595697
scalar OsgEarthNet.uav[35] utilizationSecIdle 43792.002
scalar OsgEarthNet.uav[35] utilizationEnergyMission 158701.1252327
scalar OsgEarthNet.uav[35] utilizationEnergyMaintenance 60847.578445435
scalar OsgEarthNet.uav[35] utilizationEnergyCharge 219150.78222656
scalar OsgEarthNet.uav[35] utilizationEnergyOverdrawMission 0
scalar OsgEarthNet.uav[35] utilizationEnergyOverdrawMaintenance 0
scalar OsgEarthNet.uav[35] utilizationCountMissions 48
scalar OsgEarthNet.uav[35] utilizationCountManeuversMission 1096
scalar OsgEarthNet.uav[35] utilizationCountManeuversMaintenance 96
scalar OsgEarthNet.uav[35] utilizationCountChargeState 48
scalar OsgEarthNet.uav[35] utilizationCountOverdrawnAfterMission 0
scalar OsgEarthNet.uav[35] utilizationCountIdleState 47
scalar OsgEarthNet.uav[35] utilizationFail 0
scalar OsgEarthNet.uav[35] simulationTime 259200
scalar OsgEarthNet.uav[36] utilizationSecMission 32148.231388954
scalar OsgEarthNet.uav[36] utilizationSecMaintenance 13602.317584715
scalar OsgEarthNet.uav[36] utilizationSecCharge 168698.50077067
scalar OsgEarthNet.uav[36] utilizationSecIdle 44750.949255665
scalar OsgEarthNet.uav[36] utilizationEnergyMission 159368.37927628
scalar OsgEarthNet.uav[36] utilizationEnergyMaintenance 63067.47013855
scalar OsgEarthNet.uav[36] utilizationEnergyCharge 219035.45800781
scalar OsgEarthNet.uav[36] utilizationEnergyOverdrawMission 0
scalar OsgEarthNet.uav[36] utilizationEnergyOverdrawMaintenance 0
scalar OsgEarthNet.uav[36] utilizationCountMissions 48
scalar OsgEarthNet.uav[36] utilizationCountManeuversMission 1172
scalar OsgEarthNet.uav[36] utilizationCountManeuversMaintenance 96
scalar OsgEarthNet.uav[36] utilizationCountChargeState 48
scalar OsgEarthNet.uav[36] utilizationCountOverdrawnAfterMission 0
scalar OsgEarthNet.uav[36] utilizationCountIdleState 48
scalar OsgEarthNet.uav[36] utilizationFail 0
scalar OsgEarthNet.uav[36] simulationTime 259200
scalar OsgEarthNet.uav[37] utilizationSecMission 31573.391397556
scalar OsgEarthNet.uav[37] utilizationSecMaintenance 16183.155222662
scalar OsgEarthNet.uav[37] utilizationSecCharge 181331.44837978
scalar OsgEarthNet.uav[37] utilizationSecIdle 30112.004
scalar OsgEarthNet.uav[37] utilizationEnergyMission 148792.5197525
scalar OsgEarthNet.uav[37] utilizationEnergyMaintenance 76874.219139099
scalar OsgEarthNet.uav[37] utilizationEnergyCharge 224034.34570312
scalar OsgEarthNet.uav[37] utilizationEnergyOverdrawMission 0
scalar OsgEarthNet.uav[37] utilizationEnergyOverdrawMaintenance 0
scalar OsgEarthNet.uav[37] utilizationCountMissions 58
scalar OsgEarthNet.uav[37] utilizationCountManeuversMission 720
scalar OsgEarthNet.uav[37] utilizationCountManeuversMaintenance 116
scalar OsgEarthNet.uav[37] utilizationCountChargeState 58
scalar OsgEarthNet.uav[37] utilizationCountOverdrawnAfterMission 0
scalar OsgEarthNet.uav[37] utilizationCountIdleState 58
scalar OsgEarthNet.uav[37] utilizationFail 0
scalar OsgEarthNet.uav[37] simulationTime 259200
scalar OsgEarthNet.uav[38] utilizationSecMission 34847.085361953
scalar OsgEarthNet.uav[38] utilizationSecMaintenance 13246.474065571
scalar OsgEarthNet.uav[38] utilizationSecCharge 174674.98661376
scalar OsgEarthNet.uav[38] utilizationSecIdle 36431.452958717
scalar OsgEarthNet.uav[38] utilizationEnergyMission 170303.28750229
scalar OsgEarthNet.uav[38] utilizationEnergyMaintenance 60737.589149475
scalar OsgEarthNet.uav[38] utilizationEnergyCharge 227432.43408203
scalar OsgEarthNet.uav[38] utilizationEnergyOverdrawMission 0
scalar OsgEarthNet.uav[38] utilizationEnergyOverdrawMaintenance 0
scalar OsgEarthNet.uav[38] utilizationCountMissions 49
scalar OsgEarthNet.uav[38] utilizationCountManeuversMission 1098
scalar OsgEarthNet.uav[38] utilizationCountManeuversMaintenance 98
scalar OsgEarthNet.uav[38] utilizationCountChargeState 49
scalar OsgEarthNet.uav[38] utilizationCountOverdrawnAfterMission 0
scalar OsgEarthNet.uav[38] utilizationCountIdleState 49
scalar OsgEarthNet.uav[38] utilizationFail 0
scalar OsgEarthNet.uav[38] simulationTime 259200
scalar OsgEarthNet.uav[39] utilizationSecMission 32488.98040947
scalar OsgEarthNet.uav[39] utilizationSecMaintenance 14059.943294166
scalar OsgEarthNet.uav[39] utilizationSecCharge 171029.07529636
scalar OsgEarthNet.uav[39] utilizationSecIdle 41622
scalar OsgEarthNet.uav[39] utilizationEnergyMission 159928.81762314
scalar OsgEarthNet.uav[39] utilizationEnergyMaintenance 64673.327587128
scalar OsgEarthNet.uav[39] utilizationEnergyCharge 222943.43896484
scalar OsgEarthNet.uav[39] utilizationEnergyOverdrawMission 0
scalar OsgEarthNet.uav[39] utilizationEnergyOverdrawMaintenance 0
scalar OsgEarthNet.uav[39] utilizationCountMissions 49
scalar OsgEarthNet.uav[39] utilizationCountManeuversMission 1147
scalar OsgEarthNet.uav[39] utilizationCountManeuversMaintenance 97
scalar OsgEarthNet.uav[39] utilizationCountChargeState 49
scalar OsgEarthNet.uav[39] utilizationCountOverdrawnAfterMission 0
scalar OsgEarthNet.uav[39] utilizationCountIdleState 48
scalar OsgEarthNet.uav[39] utilizationFail 0
scalar OsgEarthNet.uav[39] simulationTime 259200
scalar OsgEarthNet.uav[40] utilizationSecMission 24727.610906043
scalar OsgEarthNet.uav[40] utilizationSecMaintenance 17876.75422256
scalar OsgEarthNet.uav[40] utilizationSecCharge 161133.6268714
scalar OsgEarthNet.uav[40] utilizationSecIdle 55462.007
scalar OsgEarthNet.uav[40] utilizationEnergyMission 121042.06904602
scalar OsgEarthNet.uav[40] utilizationEnergyMaintenance 84763.114826202
scalar OsgEarthNet.uav[40] utilizationEnergyCharge 207988.25585938
scalar OsgEarthNet.uav[40] utilizationEnergyOverdrawMission 0
scalar OsgEarthNet.uav[40] utilizationEnergyOverdrawMaintenance 0
scalar OsgEarthNet.uav[40] utilizationCountMissions 46
scalar OsgEarthNet.uav[40] utilizationCountManeuversMission 907
scalar OsgEarthNet.uav[40] utilizationCountManeuversMaintenance 92
scalar OsgEarthNet.uav[40] utilizationCountChargeState 46
scalar OsgEarthNet.uav[40] utilizationCountOverdrawnAfterMission 0
scalar OsgEarthNet.uav[40] utilizationCountIdleState 46
scalar OsgEarthNet.uav[40] utilizationFail 0
scalar OsgEarthNet.uav[40] simulationTime 259200
scalar OsgEarthNet.uav[41] utilizationSecMission 30249.842622697
scalar OsgEarthNet.uav[41] utilizationSecMaintenance 16928.348090119
scalar OsgEarthNet.uav[41] utilizationSecCharge 179130
scalar OsgEarthNet.uav[41] utilizationSecIdle 32891.808287184
scalar OsgEarthNet.uav[41] utilizationEnergyMission 144840.49475479
scalar OsgEarthNet.uav[41] utilizationEnergyMaintenance 80787.839232773
scalar OsgEarthNet.uav[41] utilizationEnergyCharge 221907.05810547
scalar OsgEarthNet.uav[41] utilizationEnergyOverdrawMission 0
scalar OsgEarthNet.uav[41] utilizationEnergyOverdrawMaintenance 0
scalar OsgEarthNet.uav[41] utilizationCountMissions 57
scalar OsgEarthNet.uav[41] utilizationCountManeuversMission 845
scalar OsgEarthNet.uav[41] utilizationCountManeuversMaintenance 114
scalar OsgEarthNet.uav[41] utilizationCountChargeState 56
scalar OsgEarthNet.uav[41] utilizationCountOverdrawnAfterMission 0
scalar OsgEarthNet.uav[41] utilizationCountIdleState 57
scalar OsgEarthNet.uav[41] utilizationFail 0
scalar OsgEarthNet.uav[41] simulationTime 259200
scalar OsgEarthNet.uav[42] utilizationSecMission 33498.715600929
scalar OsgEarthNet.uav[42] utilizationSecMaintenance 14180.350365939
scalar OsgEarthNet.uav[42] utilizationSecCharge 174988.93003313
scalar OsgEarthNet.uav[42] utilizationSecIdle 36532.003
scalar OsgEarthNet.uav[42] utilizationEnergyMission 161309.16155624
scalar OsgEarthNet.uav[42] utilizationEnergyMaintenance 65912.895362854
scalar OsgEarthNet.uav[42] utilizationEnergyCharge 227830.8515625
scalar OsgEarthNet.uav[42] utilizationEnergyOverdrawMission 0
scalar OsgEarthNet.uav[42] utilizationEnergyOverdrawMaintenance 0
scalar OsgEarthNet.uav[42] utilizationCountMissions 49
scalar OsgEarthNet.uav[42] utilizationCountManeuversMission 1096
scalar OsgEarthNet.uav[42] utilizationCountManeuversMaintenance 98
scalar OsgEarthNet.uav[42] utilizationCountChargeState 49
scalar OsgEarthNet.uav[42] utilizationCountOverdrawnAfterMission 0
scalar OsgEarthNet.uav[42] utilizationCountIdleState 49
scalar OsgEarthNet.uav[42] utilizationFail 0
scalar OsgEarthNet.uav[42] simulationTime 259200
scalar OsgEarthNet.uav[43] utilizationSecMission 27612.503051606
scalar OsgEarthNet.uav[43] utilizationSecMaintenance 16740.385298808
scalar OsgEarthNet.uav[43] utilizationSecCharge 163275.10764959
scalar OsgEarthNet.uav[43] utilizationSecIdle 51572.003
scalar OsgEarthNet.uav[43] utilizationEnergyMission 135491.72890854
scalar OsgEarthNet.uav[43] utilizationEnergyMaintenance 79186.031951904
scalar OsgEarthNet.uav[43] utilizationEnergyCharge 210804.29711914
scalar OsgEarthNet.uav[43] utilizationEnergyOverdrawMission 0
scalar OsgEarthNet.uav[43] utilizationEnergyOverdrawMaintenance 0
scalar OsgEarthNet.uav[43] utilizationCountMissions 47
scalar OsgEarthNet.uav[43] utilizationCountManeuversMission 860
scalar OsgEarthNet.uav[43] utilizationCountManeuversMaintenance 94
scalar OsgEarthNet.uav[43] utilizationCountChargeState 47
scalar OsgEarthNet.uav[43] utilizationCountOverdrawnAfterMission 0
scalar OsgEarthNet.uav[43] utilizationCountIdleState 47
scalar OsgEarthNet.uav[43] utilizationFail 0
scalar OsgEarthNet.uav[43] simulationTime 259200
scalar OsgEarthNet.uav[44] utilizationSecMission 31112.7201738
scalar OsgEarthNet.uav[44] utilizationSecMaintenance 17737.323534079
scalar OsgEarthNet.uav[44] utilizationSecCharge 184508.99130645
scalar OsgEarthNet.uav[44] utilizationSecIdle 25840.963985674
scalar OsgEarthNet.uav[44] utilizationEnergyMission 152297.86399078
scalar OsgEarthNet.uav[44] utilizationEnergyMaintenance 84054.912090301
scalar OsgEarthNet.uav[44] utilizationEnergyCharge 233472.06420898
scalar OsgEarthNet.uav[44] utilizationEnergyOverdrawMission 0
scalar OsgEarthNet.uav[44] utilizationEnergyOverdrawMaintenance 0
scalar OsgEarthNet.uav[44] utilizationCountMissions 56
scalar OsgEarthNet.uav[44] utilizationCountManeuversMission 969
scalar OsgEarthNet.uav[44] utilizationCountManeuversMaintenance 112
scalar OsgEarthNet.uav[44] utilizationCountChargeState 56
scalar OsgEarthNet.uav[44] utilizationCountOverdrawnAfterMission 0
scalar OsgEarthNet.uav[44] utilizationCountIdleState 56
scalar OsgEarthNet.uav[44] utilizationFail 0
scalar OsgEarthNet.uav[44] simulationTime 259200
scalar OsgEarthNet.uav[45] utilizationSecMission 33226.820385405
scalar OsgEarthNet.uav[45] utilizationSecMaintenance 13346.597385736
scalar OsgEarthNet.uav[45] utilizationSecCharge 170715.87317163
scalar OsgEarthNet.uav[45] utilizationSecIdle 41910.708057228
scalar OsgEarthNet.uav[45] utilizationEnergyMission 159228.79352951
scalar OsgEarthNet.uav[45] utilizationEnergyMaintenance 62283.182891846
scalar OsgEarthNet.uav[45] utilizationEnergyCharge 221747.82324219
scalar OsgEarthNet.uav[45] utilizationEnergyOverdrawMission 0
scalar OsgEarthNet.uav[45] utilizationEnergyOverdrawMaintenance 0
scalar OsgEarthNet.uav[45] utilizationCountMissions 48
scalar OsgEarthNet.uav[45] utilizationCountManeuversMission 1014
scalar OsgEarthNet.uav[45] utilizationCountManeuversMaintenance 96
scalar OsgEarthNet.uav[45] utilizationCountChargeState 48
scalar OsgEarthNet.uav[45] utilizationCountOverdrawnAfterMission 0
scalar OsgEarthNet.uav[45] utilizationCountIdleState 48
scalar OsgEarthNet.uav[45] utilizationFail 0
scalar OsgEarthNet.uav[45] simulationTime 259200
scalar OsgEarthNet.uav[46] utilizationSecMission 25672.503051606
scalar OsgEarthNet.uav[46] utilizationSecMaintenance 14688.556425502
scalar OsgEarthNet.uav[46] utilizationSecCharge 148616.92752289
scalar OsgEarthNet.uav[46] utilizationSecIdle 70222.012
scalar OsgEarthNet.uav[46] utilizationEnergyMission 123864.73144531
scalar OsgEarthNet.uav[46] utilizationEnergyMaintenance 69759.86857605
scalar OsgEarthNet.uav[46] utilizationEnergyCharge 191907.88623047
scalar OsgEarthNet.uav[46] utilizationEnergyOverdrawMission 0
scalar OsgEarthNet.uav[46] utilizationEnergyOverdrawMaintenance 0
scalar OsgEarthNet.uav[46] utilizationCountMissions 43
scalar OsgEarthNet.uav[46] utilizationCountManeuversMission 763
scalar OsgEarthNet.uav[46] utilizationCountManeuversMaintenance 86
scalar OsgEarthNet.uav[46] utilizationCountChargeState 43
scalar OsgEarthNet.uav[46] utilizationCountOverdrawnAfterMission 0
scalar OsgEarthNet.uav[46] utilizationCountIdleState 43
scalar OsgEarthNet.uav[46] utilizationFail 0
scalar OsgEarthNet.uav[46] simulationTime 259200
scalar OsgEarthNet.uav[47] utilizationSecMission 32531.521966188
scalar OsgEarthNet.uav[47] utilizationSecMaintenance 14739.132038199
scalar OsgEarthNet.uav[47] utilizationSecCharge 174530
scalar OsgEarthNet.uav[47] utilizationSecIdle 37399.344995613
scalar OsgEarthNet.uav[47] utilizationEnergyMission 158237.79971313
scalar OsgEarthNet.uav[47] utilizationEnergyMaintenance 67416.641422272
scalar OsgEarthNet.uav[47] utilizationEnergyCharge 224075.89941406
scalar OsgEarthNet.uav[47] utilizationEnergyOverdrawMission 0
scalar OsgEarthNet.uav[47] utilizationEnergyOverdrawMaintenance 0
scalar OsgEarthNet.uav[47] utilizationCountMissions 50
scalar OsgEarthNet.uav[47] utilizationCountManeuversMission 1025
scalar OsgEarthNet.uav[47] utilizationCountManeuversMaintenance 100
scalar OsgEarthNet.uav[47] utilizationCountChargeState 50
scalar OsgEarthNet.uav[47] utilizationCountOverdrawnAfterMission 0
scalar OsgEarthNet.uav[47] utilizationCountIdleState 51
scalar OsgEarthNet.uav[47] utilizationFail 0
scalar OsgEarthNet.uav[47] simulationTime 259200
scalar OsgEarthNet.uav[48] utilizationSecMission 34969.364938779
scalar OsgEarthNet.uav[48] utilizationSecMaintenance 13113.318299791
scalar OsgEarthNet.uav[48] utilizationSecCharge 171887.68468076
scalar OsgEarthNet.uav[48] utilizationSecIdle 39229.631080665
scalar OsgEarthNet.uav[48] utilizationEnergyMission 166948.07342529
scalar OsgEarthNet.uav[48] utilizationEnergyMaintenance 59673.589809418
scalar OsgEarthNet.uav[48] utilizationEnergyCharge 222727.73046875
scalar OsgEarthNet.uav[48] utilizationEnergyOverdrawMission 0
scalar OsgEarthNet.uav[48] utilizationEnergyOverdrawMaintenance 0
scalar OsgEarthNet.uav[48] utilizationCountMissions 49
scalar OsgEarthNet.uav[48] utilizationCountManeuversMission 960
scalar OsgEarthNet.uav[48] utilizationCountManeuversMaintenance 98
scalar OsgEarthNet.uav[48] utilizationCountChargeState 49
scalar OsgEarthNet.uav[48] utilizationCountOverdrawnAfterMission 0
scalar OsgEarthNet.uav[48] utilizationCountIdleState 49
scalar OsgEarthNet.uav[48] utilizationFail 0
scalar OsgEarthNet.uav[48] simulationTime 259200
scalar OsgEarthNet.uav[49] utilizationSecMission 27920.776557536
scalar OsgEarthNet.uav[49] utilizationSecMaintenance 18542.954820087
scalar OsgEarthNet.uav[49] utilizationSecCharge 172800
scalar OsgEarthNet.uav[49] utilizationSecIdle 39936.267622377
scalar OsgEarthNet.uav[49] utilizationEnergyMission 134782.76734924
scalar OsgEarthNet.uav[49] utilizationEnergyMaintenance 87522.864635467
scalar OsgEarthNet.uav[49] utilizationEnergyCharge 222802.41699219
scalar OsgEarthNet.uav[49] utilizationEnergyOverdrawMission 0
scalar OsgEarthNet.uav[49] utilizationEnergyOverdrawMaintenance 0
scalar OsgEarthNet.uav[49] utilizationCountMissions 49
scalar OsgEarthNet.uav[49] utilizationCountManeuversMission 966
scalar OsgEarthNet.uav[49] utilizationCountManeuversMaintenance 98
scalar OsgEarthNet.uav[49] utilizationCountChargeState 49
scalar OsgEarthNet.uav[49] utilizationCountOverdrawnAfterMission 0
scalar OsgEarthNet.uav[49] utilizationCountIdleState 50
scalar OsgEarthNet.uav[49] utilizationFail 0
scalar OsgEarthNet.uav[49] simulationTime 259200
scalar OsgEarthNet.uav[50] utilizationSecMission 25559.119249954
scalar OsgEarthNet.uav[50] utilizationSecMaintenance 17325.191251583
scalar OsgEarthNet.uav[50] utilizationSecCharge 162451.98830197
scalar OsgEarthNet.uav[50] utilizationSecIdle 53863.700196497
scalar OsgEarthNet.uav[50] utilizationEnergyMission 125899.46152496
scalar OsgEarthNet.uav[50] utilizationEnergyMaintenance 82322.08542633
scalar OsgEarthNet.uav[50] utilizationEnergyCharge 209583.36572266
scalar OsgEarthNet.uav[50] utilizationEnergyOverdrawMission 0
scalar OsgEarthNet.uav[50] utilizationEnergyOverdrawMaintenance 0
scalar OsgEarthNet.uav[50] utilizationCountMissions 46
scalar OsgEarthNet.uav[50] utilizationCountManeuversMission 892
scalar OsgEarthNet.uav[50] utilizationCountManeuversMaintenance 92
scalar OsgEarthNet.uav[50] utilizationCountChargeState 46
scalar OsgEarthNet.uav[50] utilizationCountOverdrawnAfterMission 0
scalar OsgEarthNet.uav[50] utilizationCountIdleState 46
scalar OsgEarthNet.uav[50] utilizationFail 0
scalar OsgEarthNet.uav[50] simulationTime 259200
scalar OsgEarthNet.uav[51] utilizationSecMission 33002.576596036
scalar OsgEarthNet.uav[51] utilizationSecMaintenance 13241.979315273
scalar OsgEarthNet.uav[51] utilizationSecCharge 171180
scalar OsgEarthNet.uav[51] utilizationSecIdle 41775.443088691
scalar OsgEarthNet.uav[51] utilizationEnergyMission 160950.38794327
scalar OsgEarthNet.uav[51] utilizationEnergyMaintenance 61370.706196392
scalar OsgEarthNet.uav[51] utilizationEnergyCharge 221717.42871094
scalar OsgEarthNet.uav[51] utilizationEnergyOverdrawMission 0
scalar OsgEarthNet.uav[51] utilizationEnergyOverdrawMaintenance 0
scalar OsgEarthNet.uav[51] utilizationCountMissions 48
scalar OsgEarthNet.uav[51] utilizationCountManeuversMission 1060
scalar OsgEarthNet.uav[51] utilizationCountManeuversMaintenance 97
scalar OsgEarthNet.uav[51] utilizationCountChargeState 48
scalar OsgEarthNet.uav[51] utilizationCountOverdrawnAfterMission 0
scalar OsgEarthNet.uav[51] utilizationCountIdleState 49
scalar OsgEarthNet.uav[51] utilizationFail 0
scalar OsgEarthNet.uav[51] simulationTime 259200
scalar OsgEarthNet.uav[52] utilizationSecMission 33282.213928562
scalar OsgEarthNet.uav[52] utilizationSecMaintenance 13713.616873565
scalar OsgEarthNet.uav[52] utilizationSecCharge 171492.16819787
scalar OsgEarthNet.uav[52] utilizationSecIdle 40712
scalar OsgEarthNet.uav[52] utilizationEnergyMission 161360.45124054
scalar OsgEarthNet.uav[52] utilizationEnergyMaintenance 63360.792045593
scalar OsgEarthNet.uav[52] utilizationEnergyCharge 223482.01855469
scalar OsgEarthNet.uav[52] utilizationEnergyOverdrawMission 0
scalar OsgEarthNet.uav[52] utilizationEnergyOverdrawMaintenance 0
scalar OsgEarthNet.uav[52] utilizationCountMissions 49
scalar OsgEarthNet.uav[52] utilizationCountManeuversMission 1050
scalar OsgEarthNet.uav[52] utilizationCountManeuversMaintenance 98
scalar OsgEarthNet.uav[52] utilizationCountChargeState 49
scalar OsgEarthNet.uav[52] utilizationCountOverdrawnAfterMission 0
scalar OsgEarthNet.uav[52] utilizationCountIdleState 48
scalar OsgEarthNet.uav[52] utilizationFail 0
scalar OsgEarthNet.uav[52] simulationTime 259200
scalar OsgEarthNet.uav[53] utilizationSecMission 26950.627593865
scalar OsgEarthNet.uav[53] utilizationSecMaintenance 17328.418525552
scalar OsgEarthNet.uav[53] utilizationSecCharge 166160
scalar OsgEarthNet.uav[53] utilizationSecIdle 48760.952880583
scalar OsgEarthNet.uav[53] utilizationEnergyMission 132434.34457397
scalar OsgEarthNet.uav[53] utilizationEnergyMaintenance 82024.039520263
scalar OsgEarthNet.uav[53] utilizationEnergyCharge 214238.59887695
scalar OsgEarthNet.uav[53] utilizationEnergyOverdrawMission 0
scalar OsgEarthNet.uav[53] utilizationEnergyOverdrawMaintenance 0
scalar OsgEarthNet.uav[53] utilizationCountMissions 47
scalar OsgEarthNet.uav[53] utilizationCountManeuversMission 905
scalar OsgEarthNet.uav[53] utilizationCountManeuversMaintenance 94
scalar OsgEarthNet.uav[53] utilizationCountChargeState 47
scalar OsgEarthNet.uav[53] utilizationCountOverdrawnAfterMission 0
scalar OsgEarthNet.uav[53] utilizationCountIdleState 48
scalar OsgEarthNet.uav[53] utilizationFail 0
scalar OsgEarthNet.uav[53] simulationTime 259200
scalar OsgEarthNet.uav[54] utilizationSecMission 33196.883808459
scalar OsgEarthNet.uav[54] utilizationSecMaintenance 15361.283873895
scalar OsgEarthNet.uav[54] utilizationSecCharge 180177.12561861
scalar OsgEarthNet.uav[54] utilizationSecIdle 30464.705699036
scalar OsgEarthNet.uav[54] utilizationEnergyMission 155871.81360245
scalar OsgEarthNet.uav[54] utilizationEnergyMaintenance 72790.274169922
scalar OsgEarthNet.uav[54] utilizationEnergyCharge 227328.66955566
scalar OsgEarthNet.uav[54] utilizationEnergyOverdrawMission 0
scalar OsgEarthNet.uav[54] utilizationEnergyOverdrawMaintenance 0
scalar OsgEarthNet.uav[54] utilizationCountMissions 55
scalar OsgEarthNet.uav[54] utilizationCountManeuversMission 806
scalar OsgEarthNet.uav[54] utilizationCountManeuversMaintenance 110
scalar OsgEarthNet.uav[54] utilizationCountChargeState 55
scalar OsgEarthNet.uav[54] utilizationCountOverdrawnAfterMission 0
scalar OsgEarthNet.uav[54] utilizationCountIdleState 54
scalar OsgEarthNet.uav[54] utilizationFail 0
scalar OsgEarthNet.uav[54] simulationTime 259200
scalar OsgEarthNet.uav[55] utilizationSecMission 34698.71259149
scalar OsgEarthNet.uav[55] utilizationSecMaintenance 12812.030459679
scalar OsgEarthNet.uav[55] utilizationSecCharge 172860.03633492
scalar OsgEarthNet.uav[55] utilizationSecIdle 38829.219613916
scalar OsgEarthNet.uav[55] utilizationEnergyMission 168340.47052765
scalar OsgEarthNet.uav[55] utilizationEnergyMaintenance 57658.422100067
scalar OsgEarthNet.uav[55] utilizationEnergyCharge 224535.30371094
scalar OsgEarthNet.uav[55] utilizationEnergyOverdrawMission 0
scalar OsgEarthNet.uav[55] utilizationEnergyOverdrawMaintenance 0
scalar OsgEarthNet.uav[55] utilizationCountMissions 49
scalar OsgEarthNet.uav[55] utilizationCountManeuversMission 1062
scalar OsgEarthNet.uav[55] utilizationCountManeuversMaintenance 98
scalar OsgEarthNet.uav[55] utilizationCountChargeState 49
scalar OsgEarthNet.uav[55] utilizationCountOverdrawnAfterMission 0
scalar OsgEarthNet.uav[55] utilizationCountIdleState 48
scalar OsgEarthNet.uav[55] utilizationFail 0
scalar OsgEarthNet.uav[55] simulationTime 259200
scalar OsgEarthNet.uav[56] utilizationSecMission 27673.969688664
scalar OsgEarthNet.uav[56] utilizationSecMaintenance 17593.403150546
scalar OsgEarthNet.uav[56] utilizationSecCharge 168830
scalar OsgEarthNet.uav[56] utilizationSecIdle 45102.626160789
scalar OsgEarthNet.uav[56] utilizationEnergyMission 135174.52687073
scalar OsgEarthNet.uav[56] utilizationEnergyMaintenance 83381.129392591
scalar OsgEarthNet.uav[56] utilizationEnergyCharge 217606.30029297
scalar OsgEarthNet.uav[56] utilizationEnergyOverdrawMission 0
scalar OsgEarthNet.uav[56] utilizationEnergyOverdrawMaintenance 0
scalar OsgEarthNet.uav[56] utilizationCountMissions 48
scalar OsgEarthNet.uav[56] utilizationCountManeuversMission 913
scalar OsgEarthNet.uav[56] utilizationCountManeuversMaintenance 97
scalar OsgEarthNet.uav[56] utilizationCountChargeState 48
scalar OsgEarthNet.uav[56] utilizationCountOverdrawnAfterMission 0
scalar OsgEarthNet.uav[56] utilizationCountIdleState 49
scalar OsgEarthNet.uav[56] utilizationFail 0
scalar OsgEarthNet.uav[56] simulationTime 259200
scalar OsgEarthNet.uav[57] utilizationSecMission 31545.872732782
scalar OsgEarthNet.uav[57] utilizationSecMaintenance 17007.384972789
scalar OsgEarthNet.uav[57] utilizationSecCharge 183740
scalar OsgEarthNet.uav[57] utilizationSecIdle 26906.741294428
scalar OsgEarthNet.uav[57] utilizationEnergyMission 151251.71623993
scalar OsgEarthNet.uav[57] utilizationEnergyMaintenance 80024.364543915
scalar OsgEarthNet.uav[57] utilizationEnergyCharge 232222.95336914
scalar OsgEarthNet.uav[57] utilizationEnergyOverdrawMission 0
scalar OsgEarthNet.uav[57] utilizationEnergyOverdrawMaintenance 0
scalar OsgEarthNet.uav[57] utilizationCountMissions 55
scalar OsgEarthNet.uav[57] utilizationCountManeuversMission 942
scalar OsgEarthNet.uav[57] utilizationCountManeuversMaintenance 110
scalar OsgEarthNet.uav[57] utilizationCountChargeState 55
scalar OsgEarthNet.uav[57] utilizationCountOverdrawnAfterMission 0
scalar OsgEarthNet.uav[57] utilizationCountIdleState 54
scalar OsgEarthNet.uav[57] utilizationFail 0
scalar OsgEarthNet.uav[57] simulationTime 259200
scalar OsgEarthNet.uav[58] utilizationSecMission 32829.29369144
scalar OsgEarthNet.uav[58] utilizationSecMaintenance 14012.772566287
scalar OsgEarthNet.uav[58] utilizationSecCharge 173500
scalar OsgEarthNet.uav[58] utilizationSecIdle 38857.932742273
scalar OsgEarthNet.uav[58] utilizationEnergyMission 157828.45043945
scalar OsgEarthNet.uav[58] utilizationEnergyMaintenance 65128.578742981
scalar OsgEarthNet.uav[58] utilizationEnergyCharge 224628.58349609
scalar OsgEarthNet.uav[58] utilizationEnergyOverdrawMission 0
scalar OsgEarthNet.uav[58] utilizationEnergyOverdrawMaintenance 0
scalar OsgEarthNet.uav[58] utilizationCountMissions 49
scalar OsgEarthNet.uav[58] utilizationCountManeuversMission 1031
scalar OsgEarthNet.uav[58] utilizationCountManeuversMaintenance 98
scalar OsgEarthNet.uav[58] utilizationCountChargeState 49
scalar OsgEarthNet.uav[58] utilizationCountOverdrawnAfterMission 0
scalar OsgEarthNet.uav[58] utilizationCountIdleState 49
scalar OsgEarthNet.uav[58] utilizationFail 0
scalar OsgEarthNet.uav[58] simulationTime 259200
scalar OsgEarthNet.uav[59] utilizationSecMission 29395.437621052
scalar OsgEarthNet.uav[59] utilizationSecMaintenance 18252.739648086
scalar OsgEarthNet.uav[59] utilizationSecCharge 180540
scalar OsgEarthNet.uav[59] utilizationSecIdle 31011.821730862
scalar OsgEarthNet.uav[59] utilizationEnergyMission 142811.51818466
scalar OsgEarthNet.uav[59] utilizationEnergyMaintenance 87636.977320174
scalar OsgEarthNet.uav[59] utilizationEnergyCharge 226463.99853516
scalar OsgEarthNet.uav[59] utilizationEnergyOverdrawMission 0
scalar OsgEarthNet.uav[59] utilizationEnergyOverdrawMaintenance 0
scalar OsgEarthNet.uav[59] utilizationCountMissions 56
scalar OsgEarthNet.uav[59] utilizationCountManeuversMission 920
scalar OsgEarthNet.uav[59] utilizationCountManeuversMaintenance 112
scalar OsgEarthNet.uav[59] utilizationCountChargeState 55
scalar OsgEarthNet.uav[59] utilizationCountOverdrawnAfterMission 0
scalar OsgEarthNet.uav[59] utilizationCountIdleState 56
scalar OsgEarthNet.uav[59] utilizationFail 0
scalar OsgEarthNet.uav[59] simulationTime 259200
scalar OsgEarthNet.uav[60] utilizationSecMission 28100.885632615
scalar OsgEarthNet.uav[60] utilizationSecMaintenance 17918.056693044
scalar OsgEarthNet.uav[60] utilizationSecCharge 170849.05467434
scalar OsgEarthNet.uav[60] utilizationSecIdle 42332.002
scalar OsgEarthNet.uav[60] utilizationEnergyMission 138150.57136917
scalar OsgEarthNet.uav[60] utilizationEnergyMaintenance 85522.324932098
scalar OsgEarthNet.uav[60] utilizationEnergyCharge 220819.85400391
scalar OsgEarthNet.uav[60] utilizationEnergyOverdrawMission 0
scalar OsgEarthNet.uav[60] utilizationEnergyOverdrawMaintenance 0
scalar OsgEarthNet.uav[60] utilizationCountMissions 49
scalar OsgEarthNet.uav[60] utilizationCountManeuversMission 958
scalar OsgEarthNet.uav[60] utilizationCountManeuversMaintenance 98
scalar OsgEarthNet.uav[60] utilizationCountChargeState 49
scalar OsgEarthNet.uav[60] utilizationCountOverdrawnAfterMission 0
scalar OsgEarthNet.uav[60] utilizationCountIdleState 49
scalar OsgEarthNet.uav[60] utilizationFail 0
scalar OsgEarthNet.uav[60] simulationTime 259200
scalar OsgEarthNet.uav[61] utilizationSecMission 31121.326777135
scalar OsgEarthNet.uav[61] utilizationSecMaintenance 16322.29510412
scalar OsgEarthNet.uav[61] utilizationSecCharge 181030
scalar OsgEarthNet.uav[61] utilizationSecIdle 30726.377118744
scalar OsgEarthNet.uav[61] utilizationEnergyMission 146954.99129868
scalar OsgEarthNet.uav[61] utilizationEnergyMaintenance 78037.670055389
scalar OsgEarthNet.uav[61] utilizationEnergyCharge 225455.42260742
scalar OsgEarthNet.uav[61] utilizationEnergyOverdrawMission 0
scalar OsgEarthNet.uav[61] utilizationEnergyOverdrawMaintenance 0
scalar OsgEarthNet.uav[61] utilizationCountMissions 56
scalar OsgEarthNet.uav[61] utilizationCountManeuversMission 781
scalar OsgEarthNet.uav[61] utilizationCountManeuversMaintenance 112
scalar OsgEarthNet.uav[61] utilizationCountChargeState 56
scalar OsgEarthNet.uav[61] utilizationCountOverdrawnAfterMission 0
scalar OsgEarthNet.uav[61] utilizationCountIdleState 57
scalar OsgEarthNet.uav[61] utilizationFail 0
scalar OsgEarthNet.uav[61] simulationTime 259200
scalar OsgEarthNet.uav[62] utilizationSecMission 32993.917291383
scalar OsgEarthNet.uav[62] utilizationSecMaintenance 14483.933815549
scalar OsgEarthNet.uav[62] utilizationSecCharge 175080.14689307
scalar OsgEarthNet.uav[62] utilizationSecIdle 36642.001
scalar OsgEarthNet.uav[62] utilizationEnergyMission 162711.98634338
scalar OsgEarthNet.uav[62] utilizationEnergyMaintenance 67713.40927887
scalar OsgEarthNet.uav[62] utilizationEnergyCharge 227453.11254883
scalar OsgEarthNet.uav[62] utilizationEnergyOverdrawMission 0
scalar OsgEarthNet.uav[62] utilizationEnergyOverdrawMaintenance 0
scalar OsgEarthNet.uav[62] utilizationCountMissions 50
scalar OsgEarthNet.uav[62] utilizationCountManeuversMission 1139
scalar OsgEarthNet.uav[62] utilizationCountManeuversMaintenance 100
scalar OsgEarthNet.uav[62] utilizationCountChargeState 50
scalar OsgEarthNet.uav[62] utilizationCountOverdrawnAfterMission 0
scalar OsgEarthNet.uav[62] utilizationCountIdleState 49
scalar OsgEarthNet.uav[62] utilizationFail 0
scalar OsgEarthNet.uav[62] simulationTime 259200
scalar OsgEarthNet.uav[63] utilizationSecMission 29545.285835111
scalar OsgEarthNet.uav[63] utilizationSecMaintenance 17934.461080474
scalar OsgEarthNet.uav[63] utilizationSecCharge 182630
scalar OsgEarthNet.uav[63] utilizationSecIdle 29090.252084415
scalar OsgEarthNet.uav[63] utilizationEnergyMission 142972.16874313
scalar OsgEarthNet.uav[63] utilizationEnergyMaintenance 85459.04309082
scalar OsgEarthNet.uav[63] utilizationEnergyCharge 228280.12231445
scalar OsgEarthNet.uav[63] utilizationEnergyOverdrawMission 0
scalar OsgEarthNet.uav[63] utilizationEnergyOverdrawMaintenance 0
scalar OsgEarthNet.uav[63] utilizationCountMissions 56
scalar OsgEarthNet.uav[63] utilizationCountManeuversMission 913
scalar OsgEarthNet.uav[63] utilizationCountManeuversMaintenance 112
scalar OsgEarthNet.uav[63] utilizationCountChargeState 56
scalar OsgEarthNet.uav[63] utilizationCountOverdrawnAfterMission 0
scalar OsgEarthNet.uav[63] utilizationCountIdleState 57
scalar OsgEarthNet.uav[63] utilizationFail 0
scalar OsgEarthNet.uav[63] simulationTime 259200
scalar OsgEarthNet.uav[64] utilizationSecMission 30390.682727808
scalar OsgEarthNet.uav[64] utilizationSecMaintenance 17111.343362853
scalar OsgEarthNet.uav[64] utilizationSecCharge 182610
scalar OsgEarthNet.uav[64] utilizationSecIdle 29087.972909339
scalar OsgEarthNet.uav[64] utilizationEnergyMission 144876.62617493
scalar OsgEarthNet.uav[64] utilizationEnergyMaintenance 81711.515007019
scalar OsgEarthNet.uav[64] utilizationEnergyCharge 226480.63452148
scalar OsgEarthNet.uav[64] utilizationEnergyOverdrawMission 0
scalar OsgEarthNet.uav[64] utilizationEnergyOverdrawMaintenance 0
scalar OsgEarthNet.uav[64] utilizationCountMissions 57
scalar OsgEarthNet.uav[64] utilizationCountManeuversMission 829
scalar OsgEarthNet.uav[64] utilizationCountManeuversMaintenance 114
scalar OsgEarthNet.uav[64] utilizationCountChargeState 57
scalar OsgEarthNet.uav[64] utilizationCountOverdrawnAfterMission 0
scalar OsgEarthNet.uav[64] utilizationCountIdleState 58
scalar OsgEarthNet.uav[64] utilizationFail 0
scalar OsgEarthNet.uav[64] simulationTime 259200
scalar OsgEarthNet.uav[65] utilizationSecMission 34312.83876801
scalar OsgEarthNet.uav[65] utilizationSecMaintenance 13999.399250305
scalar OsgEarthNet.uav[65] utilizationSecCharge 177860
scalar OsgEarthNet.uav[65] utilizationSecIdle 33027.760981685
scalar OsgEarthNet.uav[65] utilizationEnergyMission 164201.00178909
scalar OsgEarthNet.uav[65] utilizationEnergyMaintenance 64732.346881866
scalar OsgEarthNet.uav[65] utilizationEnergyCharge 230220.97998047
scalar OsgEarthNet.uav[65] utilizationEnergyOverdrawMission 0
scalar OsgEarthNet.uav[65] utilizationEnergyOverdrawMaintenance 0
scalar OsgEarthNet.uav[65] utilizationCountMissions 50
scalar OsgEarthNet.uav[65] utilizationCountManeuversMission 1001
scalar OsgEarthNet.uav[65] utilizationCountManeuversMaintenance 100
scalar OsgEarthNet.uav[65] utilizationCountChargeState 50
scalar OsgEarthNet.uav[65] utilizationCountOverdrawnAfterMission 0
scalar OsgEarthNet.uav[65] utilizationCountIdleState 51
scalar OsgEarthNet.uav[65] utilizationFail 0
scalar OsgEarthNet.uav[65] simulationTime 259200
scalar OsgEarthNet.uav[66] utilizationSecMission 29418.273141278
scalar OsgEarthNet.uav[66] utilizationSecMaintenance 16823.692622664
scalar OsgEarthNet.uav[66] utilizationSecCharge 170986.03323606
scalar OsgEarthNet.uav[66] utilizationSecIdle 41972
scalar OsgEarthNet.uav[66] utilizationEnergyMission 141690.72871017
scalar OsgEarthNet.uav[66] utilizationEnergyMaintenance 80578.95646286
scalar OsgEarthNet.uav[66] utilizationEnergyCharge 220741.14697266
scalar OsgEarthNet.uav[66] utilizationEnergyOverdrawMission 0
scalar OsgEarthNet.uav[66] utilizationEnergyOverdrawMaintenance 0
scalar OsgEarthNet.uav[66] utilizationCountMissions 49
scalar OsgEarthNet.uav[66] utilizationCountManeuversMission 893
scalar OsgEarthNet.uav[66] utilizationCountManeuversMaintenance 97
scalar OsgEarthNet.uav[66] utilizationCountChargeState 49
scalar OsgEarthNet.uav[66] utilizationCountOverdrawnAfterMission 0
scalar OsgEarthNet.uav[66] utilizationCountIdleState 49
scalar OsgEarthNet.uav[66] utilizationFail 0
scalar OsgEarthNet.uav[66] simulationTime 259200
scalar OsgEarthNet.uav[67] utilizationSecMission 31152.962366109
scalar OsgEarthNet.uav[67] utilizationSecMaintenance 17098.721932002
scalar OsgEarthNet.uav[67] utilizationSecCharge 183466.30970189
scalar OsgEarthNet.uav[67] utilizationSecIdle 27482.005
scalar OsgEarthNet.uav[67] utilizationEnergyMission 148599.02666855
scalar OsgEarthNet.uav[67] utilizationEnergyMaintenance 82130.34797287
scalar OsgEarthNet.uav[67] utilizationEnergyCharge 230041.55419922
scalar OsgEarthNet.uav[67] utilizationEnergyOverdrawMission 0
scalar OsgEarthNet.uav[67] utilizationEnergyOverdrawMaintenance 0
scalar OsgEarthNet.uav[67] utilizationCountMissions 57
scalar OsgEarthNet.uav[67] utilizationCountManeuversMission 807
scalar OsgEarthNet.uav[67] utilizationCountManeuversMaintenance 114
scalar OsgEarthNet.uav[67] utilizationCountChargeState 57
scalar OsgEarthNet.uav[67] utilizationCountOverdrawnAfterMission 0
scalar OsgEarthNet.uav[67] utilizationCountIdleState 56
scalar OsgEarthNet.uav[67] utilizationFail 0
scalar OsgEarthNet.uav[67] simulationTime 259200
scalar OsgEarthNet.uav[68] utilizationSecMission 34606.533260969
scalar OsgEarthNet.uav[68] utilizationSecMaintenance 13130.935475606
scalar OsgEarthNet.uav[68] utilizationSecCharge 173300.52626343
scalar OsgEarthNet.uav[68] utilizationSecIdle 38162.004
scalar OsgEarthNet.uav[68] utilizationEnergyMission 165503.68232346
scalar OsgEarthNet.uav[68] utilizationEnergyMaintenance 60434.679866791
scalar OsgEarthNet.uav[68] utilizationEnergyCharge 225380.18554688
scalar OsgEarthNet.uav[68] utilizationEnergyOverdrawMission 0
scalar OsgEarthNet.uav[68] utilizationEnergyOverdrawMaintenance 0
scalar OsgEarthNet.uav[68] utilizationCountMissions 49
scalar OsgEarthNet.uav[68] utilizationCountManeuversMission 1003
scalar OsgEarthNet.uav[68] utilizationCountManeuversMaintenance 98
scalar OsgEarthNet.uav[68] utilizationCountChargeState 49
scalar OsgEarthNet.uav[68] utilizationCountOverdrawnAfterMission 0
scalar OsgEarthNet.uav[68] utilizationCountIdleState 49
scalar OsgEarthNet.uav[68] utilizationFail 0
scalar OsgEarthNet.uav[68] simulationTime 259200
scalar OsgEarthNet.uav[69] utilizationSecMission 25568.752136124
scalar OsgEarthNet.uav[69] utilizationSecMaintenance 17721.059350269
scalar OsgEarthNet.uav[69] utilizationSecCharge 159508.17851361
scalar OsgEarthNet.uav[69] utilizationSecIdle 56402.009
scalar OsgEarthNet.uav[69] utilizationEnergyMission 124005.35420227
scalar OsgEarthNet.uav[69] utilizationEnergyMaintenance 83902.763923645
scalar OsgEarthNet.uav[69] utilizationEnergyCharge 206039.61914062
scalar OsgEarthNet.uav[69] utilizationEnergyOverdrawMission 0
scalar OsgEarthNet.uav[69] utilizationEnergyOverdrawMaintenance 0
scalar OsgEarthNet.uav[69] utilizationCountMissions 46
scalar OsgEarthNet.uav[69] utilizationCountManeuversMission 914
scalar OsgEarthNet.uav[69] utilizationCountManeuversMaintenance 92
scalar OsgEarthNet.uav[69] utilizationCountChargeState 46
scalar OsgEarthNet.uav[69] utilizationCountOverdrawnAfterMission 0
scalar OsgEarthNet.uav[69] utilizationCountIdleState 46
scalar OsgEarthNet.uav[69] utilizationFail 0
scalar OsgEarthNet.uav[69] simulationTime 259200
scalar OsgEarthNet.uav[70] utilizationSecMission 30896.336198506
scalar OsgEarthNet.uav[70] utilizationSecMaintenance 17750.368948266
scalar OsgEarthNet.uav[70] utilizationSecCharge 181311.28985323
scalar OsgEarthNet.uav[70] utilizationSecIdle 29242.004
scalar OsgEarthNet.uav[70] utilizationEnergyMission 149795.13165283
scalar OsgEarthNet.uav[70] utilizationEnergyMaintenance 83633.171813965
scalar OsgEarthNet.uav[70] utilizationEnergyCharge 227615.15771484
scalar OsgEarthNet.uav[70] utilizationEnergyOverdrawMission 0
scalar OsgEarthNet.uav[70] utilizationEnergyOverdrawMaintenance 0
scalar OsgEarthNet.uav[70] utilizationCountMissions 56
scalar OsgEarthNet.uav[70] utilizationCountManeuversMission 974
scalar OsgEarthNet.uav[70] utilizationCountManeuversMaintenance 112
scalar OsgEarthNet.uav[70] utilizationCountChargeState 56
scalar OsgEarthNet.uav[70] utilizationCountOverdrawnAfterMission 0
scalar OsgEarthNet.uav[70] utilizationCountIdleState 56
scalar OsgEarthNet.uav[70] utilizationFail 0
scalar OsgEarthNet.uav[70] simulationTime 259200
scalar OsgEarthNet.uav[71] utilizationSecMission 31018.479317345
scalar OsgEarthNet.uav[71] utilizationSecMaintenance 16694.954597215
scalar OsgEarthNet.uav[71] utilizationSecCharge 182064.55908544
scalar OsgEarthNet.uav[71] utilizationSecIdle 29422.006
scalar OsgEarthNet.uav[71] utilizationEnergyMission 149044.63928604
scalar OsgEarthNet.uav[71] utilizationEnergyMaintenance 80148.170318604
scalar OsgEarthNet.uav[71] utilizationEnergyCharge 229056.76342773
scalar OsgEarthNet.uav[71] utilizationEnergyOverdrawMission 0
scalar OsgEarthNet.uav[71] utilizationEnergyOverdrawMaintenance 0
scalar OsgEarthNet.uav[71] utilizationCountMissions 56
scalar OsgEarthNet.uav[71] utilizationCountManeuversMission 840
scalar OsgEarthNet.uav[71] utilizationCountManeuversMaintenance 112
scalar OsgEarthNet.uav[71] utilizationCountChargeState 56
scalar OsgEarthNet.uav[71] utilizationCountOverdrawnAfterMission 0
scalar OsgEarthNet.uav[71] utilizationCountIdleState 54
scalar OsgEarthNet.uav[71] utilizationFail 0
scalar OsgEarthNet.uav[71] simulationTime 259200
scalar OsgEarthNet.uav[72] utilizationSecMission 32933.076158654
scalar OsgEarthNet.uav[72] utilizationSecMaintenance 14130.475311556
scalar OsgEarthNet.uav[72] utilizationSecCharge 173890
scalar OsgEarthNet.uav[72] utilizationSecIdle 38246.447529791
scalar OsgEarthNet.uav[72] utilizationEnergyMission 160177.69744492
scalar OsgEarthNet.uav[72] utilizationEnergyMaintenance 63983.841259003
scalar OsgEarthNet.uav[72] utilizationEnergyCharge 224993.32324219
scalar OsgEarthNet.uav[72] utilizationEnergyOverdrawMission 0
scalar OsgEarthNet.uav[72] utilizationEnergyOverdrawMaintenance 0
scalar OsgEarthNet.uav[72] utilizationCountMissions 49
scalar OsgEarthNet.uav[72] utilizationCountManeuversMission 999
scalar OsgEarthNet.uav[72] utilizationCountManeuversMaintenance 98
scalar OsgEarthNet.uav[72] utilizationCountChargeState 49
scalar OsgEarthNet.uav[72] utilizationCountOverdrawnAfterMission 0
scalar OsgEarthNet.uav[72] utilizationCountIdleState 50
scalar OsgEarthNet.uav[72] utilizationFail 0
scalar OsgEarthNet.uav[72] simulationTime 259200
scalar OsgEarthNet.uav[73] utilizationSecMission 29235.241849383
scalar OsgEarthNet.uav[73] utilizationSecMaintenance 16500.56219353
scalar OsgEarthNet.uav[73] utilizationSecCharge 170090.17667876
scalar OsgEarthNet.uav[73] utilizationSecIdle 43374.018278323
scalar OsgEarthNet.uav[73] utilizationEnergyMission 142706.97586441
scalar OsgEarthNet.uav[73] utilizationEnergyMaintenance 78855.421543121
scalar OsgEarthNet.uav[73] utilizationEnergyCharge 217712.81982422
scalar OsgEarthNet.uav[73] utilizationEnergyOverdrawMission 0
scalar OsgEarthNet.uav[73] utilizationEnergyOverdrawMaintenance 0
scalar OsgEarthNet.uav[73] utilizationCountMissions 50
scalar OsgEarthNet.uav[73] utilizationCountManeuversMission 817
scalar OsgEarthNet.uav[73] utilizationCountManeuversMaintenance 100
scalar OsgEarthNet.uav[73] utilizationCountChargeState 50
scalar OsgEarthNet.uav[73] utilizationCountOverdrawnAfterMission 0
scalar OsgEarthNet.uav[73] utilizationCountIdleState 50
scalar OsgEarthNet.uav[73] utilizationFail 0
scalar OsgEarthNet.uav[73] simulationTime 259200
scalar OsgEarthNet.uav[74] utilizationSecMission 30859.422064749
scalar OsgEarthNet.uav[74] utilizationSecMaintenance 17123.080328578
scalar OsgEarthNet.uav[74] utilizationSecCharge 183303.82842869
scalar OsgEarthNet.uav[74] utilizationSecIdle 27913.668177988
scalar OsgEarthNet.uav[74] utilizationEnergyMission 148668.49856567
scalar OsgEarthNet.uav[74] utilizationEnergyMaintenance 81526.126049042
scalar OsgEarthNet.uav[74] utilizationEnergyCharge 230502.58569336
scalar OsgEarthNet.uav[74] utilizationEnergyOverdrawMission 0
scalar OsgEarthNet.uav[74] utilizationEnergyOverdrawMaintenance 0
scalar OsgEarthNet.uav[74] utilizationCountMissions 56
scalar OsgEarthNet.uav[74] utilizationCountManeuversMission 875
scalar OsgEarthNet.uav[74] utilizationCountManeuversMaintenance 112
scalar OsgEarthNet.uav[74] utilizationCountChargeState 56
scalar OsgEarthNet.uav[74] utilizationCountOverdrawnAfterMission 0
scalar OsgEarthNet.uav[74] utilizationCountIdleState 54
scalar OsgEarthNet.uav[74] utilizationFail 0
scalar OsgEarthNet.uav[74] simulationTime 259200
scalar OsgEarthNet.uav[75] utilizationSecMission 34297.086553207
scalar OsgEarthNet.uav[75] utilizationSecMaintenance 14094.578170867
scalar OsgEarthNet.uav[75] utilizationSecCharge 174966.33427593
scalar OsgEarthNet.uav[75] utilizationSecIdle 35842
scalar OsgEarthNet.uav[75] utilizationEnergyMission 167518.72918196
scalar OsgEarthNet.uav[75] utilizationEnergyMaintenance 64024.741600037
scalar OsgEarthNet.uav[75] utilizationEnergyCharge 227063.41809082
scalar OsgEarthNet.uav[75] utilizationEnergyOverdrawMission 0
scalar OsgEarthNet.uav[75] utilizationEnergyOverdrawMaintenance 0
scalar OsgEarthNet.uav[75] utilizationCountMissions 50
scalar OsgEarthNet.uav[75] utilizationCountManeuversMission 1094
scalar OsgEarthNet.uav[75] utilizationCountManeuversMaintenance 99
scalar OsgEarthNet.uav[75] utilizationCountChargeState 50
scalar OsgEarthNet.uav[75] utilizationCountOverdrawnAfterMission 0
scalar OsgEarthNet.uav[75] utilizationCountIdleState 49
scalar OsgEarthNet.uav[75] utilizationFail 0
scalar OsgEarthNet.uav[75] simulationTime 259200
scalar OsgEarthNet.uav[76] utilizationSecMission 27351.877899025
scalar OsgEarthNet.uav[76] utilizationSecMaintenance 16557.825526218
scalar OsgEarthNet.uav[76] utilizationSecCharge 162416.90344863
scalar OsgEarthNet.uav[76] utilizationSecIdle 52873.392126128
scalar OsgEarthNet.uav[76] utilizationEnergyMission 134120.70258331
scalar OsgEarthNet.uav[76] utilizationEnergyMaintenance 78787.50680542
scalar OsgEarthNet.uav[76] utilizationEnergyCharge 209496.12487793
scalar OsgEarthNet.uav[76] utilizationEnergyOverdrawMission 0
scalar OsgEarthNet.uav[76] utilizationEnergyOverdrawMaintenance 0
scalar OsgEarthNet.uav[76] utilizationCountMissions 47
scalar OsgEarthNet.uav[76] utilizationCountManeuversMission 873
scalar OsgEarthNet.uav[76] utilizationCountManeuversMaintenance 94
scalar OsgEarthNet.uav[76] utilizationCountChargeState 47
scalar OsgEarthNet.uav[76] utilizationCountOverdrawnAfterMission 0
scalar OsgEarthNet.uav[76] utilizationCountIdleState 47
scalar OsgEarthNet.uav[76] utilizationFail 0
scalar OsgEarthNet.uav[76] simulationTime 259200
scalar OsgEarthNet.uav[77] utilizationSecMission 32101.701703051
scalar OsgEarthNet.uav[77] utilizationSecMaintenance 17515.264217639
scalar OsgEarthNet.uav[77] utilizationSecCharge 185464.67947643
scalar OsgEarthNet.uav[77] utilizationSecIdle 24118.353602879
scalar OsgEarthNet.uav[77] utilizationEnergyMission 154478.80511093
scalar OsgEarthNet.uav[77] utilizationEnergyMaintenance 82997.151176453
scalar OsgEarthNet.uav[77] utilizationEnergyCharge 233617.33642578
scalar OsgEarthNet.uav[77] utilizationEnergyOverdrawMission 0
scalar OsgEarthNet.uav[77] utilizationEnergyOverdrawMaintenance 0
scalar OsgEarthNet.uav[77] utilizationCountMissions 57
scalar OsgEarthNet.uav[77] utilizationCountManeuversMission 877
scalar OsgEarthNet.uav[77] utilizationCountManeuversMaintenance 114
scalar OsgEarthNet.uav[77] utilizationCountChargeState 57
scalar OsgEarthNet.uav[77] utilizationCountOverdrawnAfterMission 0
scalar OsgEarthNet.uav[77] utilizationCountIdleState 55
scalar OsgEarthNet.uav[77] utilizationFail 0
scalar OsgEarthNet.uav[77] simulationTime 259200
scalar OsgEarthNet.uav[78] utilizationSecMission 33483.769780898
scalar OsgEarthNet.uav[78] utilizationSecMaintenance 14268.299579948
scalar OsgEarthNet.uav[78] utilizationSecCharge 174208.75452874
scalar OsgEarthNet.uav[78] utilizationSecIdle 37239.175110411
scalar OsgEarthNet.uav[78] utilizationEnergyMission 163534.3526268
scalar OsgEarthNet.uav[78] utilizationEnergyMaintenance 65659.644096375
scalar OsgEarthNet.uav[78] utilizationEnergyCharge 226100.40441895
scalar OsgEarthNet.uav[78] utilizationEnergyOverdrawMission 0
scalar OsgEarthNet.uav[78] utilizationEnergyOverdrawMaintenance 0
scalar OsgEarthNet.uav[78] utilizationCountMissions 50
scalar OsgEarthNet.uav[78] utilizationCountManeuversMission 1198
scalar OsgEarthNet.uav[78] utilizationCountManeuversMaintenance 100
scalar OsgEarthNet.uav[78] utilizationCountChargeState 50
scalar OsgEarthNet.uav[78] utilizationCountOverdrawnAfterMission 0
scalar OsgEarthNet.uav[78] utilizationCountIdleState 49
scalar OsgEarthNet.uav[78] utilizationFail 0
scalar OsgEarthNet.uav[78] simulationTime 259200
scalar OsgEarthNet.uav[79] utilizationSecMission 27982.761090356
scalar OsgEarthNet.uav[79] utilizationSecMaintenance 16882.623059992
scalar OsgEarthNet.uav[79] utilizationSecCharge 167652.60684965
scalar OsgEarthNet.uav[79] utilizationSecIdle 46682.008
scalar OsgEarthNet.uav[79] utilizationEnergyMission 134374.30234146
scalar OsgEarthNet.uav[79] utilizationEnergyMaintenance 80836.989105224
scalar OsgEarthNet.uav[79] utilizationEnergyCharge 216805.45947266
scalar OsgEarthNet.uav[79] utilizationEnergyOverdrawMission 0
scalar OsgEarthNet.uav[79] utilizationEnergyOverdrawMaintenance 0
scalar OsgEarthNet.uav[79] utilizationCountMissions 48
scalar OsgEarthNet.uav[79] utilizationCountManeuversMission 874
scalar OsgEarthNet.uav[79] utilizationCountManeuversMaintenance 96
scalar OsgEarthNet.uav[79] utilizationCountChargeState 48
scalar OsgEarthNet.uav[79] utilizationCountOverdrawnAfterMission 0
scalar OsgEarthNet.uav[79] utilizationCountIdleState 48
scalar OsgEarthNet.uav[79] utilizationFail 0
scalar OsgEarthNet.uav[79] simulationTime 259200
scalar OsgEarthNet.cs[0] usedPower 4012703.3577942
scalar OsgEarthNet.cs[0] chargedPower 4012703.3577942
scalar OsgEarthNet.cs[0] chargedMobileNodes 877
scalar OsgEarthNet.cs[0] reservations 890
scalar OsgEarthNet.cs[1] usedPower 5708125.606366
scalar OsgEarthNet.cs[1] chargedPower 5708125.606366
scalar OsgEarthNet.cs[1] chargedMobileNodes 1381
scalar OsgEarthNet.cs[1] reservations 1412
scalar OsgEarthNet.cs[2] usedPower 6959516.7312184
scalar OsgEarthNet.cs[2] chargedPower 6959516.7312184
scalar OsgEarthNet.cs[2] chargedMobileNodes 1485
scalar OsgEarthNet.cs[2] reservations 1521

