version 2
run Szenario_Hotel_Gabelbach-59-20180707-23:17:11-53752
attr configname Szenario_Hotel_Gabelbach
attr datetime 20180707-23:17:11
attr experiment Szenario_Hotel_Gabelbach
attr inifile omnetpp.ini
attr iterationvars "$quant=0.95, $replM=0"
attr iterationvarsf quant=0.95,replM=0-
attr measurement "$quant=0.95, $replM=0"
attr network OsgEarthNet
attr processid 53752
attr repetition 11
attr replication #11
attr resultdir results
attr runnumber 59
attr seedset 59
itervar quant 0.95
itervar replM 0
param *.osgEarthScene.scene "\"Szenario_Hotel_Gabelbach.earth\""
param *.playgroundLatitude 50.6830269
param *.playgroundLongitude 10.8538055
param *.playgroundWidth 3500m
param *.playgroundHeight 3500m
param *.numCSs 3
param *.numUAVs 100
param *.cs[0].posX 3537m
param *.cs[0].posY 965m
param *.cs[0].posZ 538m
param *.cs[1].posX 312m
param *.cs[1].posY 1262m
param *.cs[1].posZ 539m
param *.cs[2].posX 2185m
param *.cs[2].posY 3026m
param *.cs[2].posZ 777m
param *.uav[*].predictionQuantile 0.95
param *.uav[*].replacementMethod 0
param *.*.timeStep 10s
param *.uav[*].commandPreviewCommandCount 20
param *.missionControl.missionFiles "\"missions\\\\Szenario_WB_Hotel_Gabelbach_Mission_Hotel.waypoints,missions\\\\Szenario_WB_Hotel_Gabelbach_Mission_Kickelhahn.waypoints,missions\\\\Szenario_WB_Hotel_Gabelbach_Mission_Ilmenau_Sportplatz.waypoints,missions\\\\Szenario_WB_Hotel_Gabelbach_Mission_Manebach_Mitte.waypoints,missions\\\\Szenario_WB_Hotel_Gabelbach_Mission_Manebach_Sued.waypoints,missions\\\\Szenario_WB_Hotel_Gabelbach_Hover_HoheSchlaufe.waypoints,missions\\\\Szenario_WB_Hotel_Gabelbach_Hover_Kickelhahn.waypoints,missions\\\\Szenario_WB_Hotel_Gabelbach_Hover_Gabelbachskopf.waypoints,missions\\\\Szenario_WB_Hotel_Gabelbach_Hover_Dachskopf.waypoints\""
param *.uav[0].startX 3537m
param *.uav[0].startY 965m
param *.uav[0].startZ 539m
param *.uav[1].startX 312m
param *.uav[1].startY 1262m
param *.uav[1].startZ 540m
param *.uav[2].startX 2185m
param *.uav[2].startY 3026m
param *.uav[2].startZ 778m
param *.uav[3].startX 3537m
param *.uav[3].startY 965m
param *.uav[3].startZ 539m
param *.uav[4].startX 312m
param *.uav[4].startY 1262m
param *.uav[4].startZ 540m
param *.uav[5].startX 2185m
param *.uav[5].startY 3026m
param *.uav[5].startZ 778m
param *.uav[6].startX 3537m
param *.uav[6].startY 965m
param *.uav[6].startZ 539m
param *.uav[7].startX 312m
param *.uav[7].startY 1262m
param *.uav[7].startZ 540m
param *.uav[8].startX 2185m
param *.uav[8].startY 3026m
param *.uav[8].startZ 778m
param *.uav[9].startX 3537m
param *.uav[9].startY 965m
param *.uav[9].startZ 539m
param *.uav[10].startX 3537m
param *.uav[10].startY 965m
param *.uav[10].startZ 539m
param *.uav[11].startX 312m
param *.uav[11].startY 1262m
param *.uav[11].startZ 540m
param *.uav[12].startX 2185m
param *.uav[12].startY 3026m
param *.uav[12].startZ 778m
param *.uav[13].startX 3537m
param *.uav[13].startY 965m
param *.uav[13].startZ 539m
param *.uav[14].startX 312m
param *.uav[14].startY 1262m
param *.uav[14].startZ 540m
param *.uav[15].startX 2185m
param *.uav[15].startY 3026m
param *.uav[15].startZ 778m
param *.uav[16].startX 3537m
param *.uav[16].startY 965m
param *.uav[16].startZ 539m
param *.uav[17].startX 312m
param *.uav[17].startY 1262m
param *.uav[17].startZ 540m
param *.uav[18].startX 2185m
param *.uav[18].startY 3026m
param *.uav[18].startZ 778m
param *.uav[19].startX 3537m
param *.uav[19].startY 965m
param *.uav[19].startZ 539m
param *.uav[20].startX 3537m
param *.uav[20].startY 965m
param *.uav[20].startZ 539m
param *.uav[21].startX 312m
param *.uav[21].startY 1262m
param *.uav[21].startZ 540m
param *.uav[22].startX 2185m
param *.uav[22].startY 3026m
param *.uav[22].startZ 778m
param *.uav[23].startX 3537m
param *.uav[23].startY 965m
param *.uav[23].startZ 539m
param *.uav[24].startX 312m
param *.uav[24].startY 1262m
param *.uav[24].startZ 540m
param *.uav[25].startX 2185m
param *.uav[25].startY 3026m
param *.uav[25].startZ 778m
param *.uav[26].startX 3537m
param *.uav[26].startY 965m
param *.uav[26].startZ 539m
param *.uav[27].startX 312m
param *.uav[27].startY 1262m
param *.uav[27].startZ 540m
param *.uav[28].startX 2185m
param *.uav[28].startY 3026m
param *.uav[28].startZ 778m
param *.uav[29].startX 3537m
param *.uav[29].startY 965m
param *.uav[29].startZ 539m
param *.uav[30].startX 3537m
param *.uav[30].startY 965m
param *.uav[30].startZ 539m
param *.uav[31].startX 312m
param *.uav[31].startY 1262m
param *.uav[31].startZ 540m
param *.uav[32].startX 2185m
param *.uav[32].startY 3026m
param *.uav[32].startZ 778m
param *.uav[33].startX 3537m
param *.uav[33].startY 965m
param *.uav[33].startZ 539m
param *.uav[34].startX 312m
param *.uav[34].startY 1262m
param *.uav[34].startZ 540m
param *.uav[35].startX 2185m
param *.uav[35].startY 3026m
param *.uav[35].startZ 778m
param *.uav[36].startX 3537m
param *.uav[36].startY 965m
param *.uav[36].startZ 539m
param *.uav[37].startX 312m
param *.uav[37].startY 1262m
param *.uav[37].startZ 540m
param *.uav[38].startX 2185m
param *.uav[38].startY 3026m
param *.uav[38].startZ 778m
param *.uav[39].startX 3537m
param *.uav[39].startY 965m
param *.uav[39].startZ 539m
param *.uav[40].startX 3537m
param *.uav[40].startY 965m
param *.uav[40].startZ 539m
param *.uav[41].startX 312m
param *.uav[41].startY 1262m
param *.uav[41].startZ 540m
param *.uav[42].startX 2185m
param *.uav[42].startY 3026m
param *.uav[42].startZ 778m
param *.uav[43].startX 3537m
param *.uav[43].startY 965m
param *.uav[43].startZ 539m
param *.uav[44].startX 312m
param *.uav[44].startY 1262m
param *.uav[44].startZ 540m
param *.uav[45].startX 2185m
param *.uav[45].startY 3026m
param *.uav[45].startZ 778m
param *.uav[46].startX 3537m
param *.uav[46].startY 965m
param *.uav[46].startZ 539m
param *.uav[47].startX 312m
param *.uav[47].startY 1262m
param *.uav[47].startZ 540m
param *.uav[48].startX 2185m
param *.uav[48].startY 3026m
param *.uav[48].startZ 778m
param *.uav[49].startX 3537m
param *.uav[49].startY 965m
param *.uav[49].startZ 539m
param *.uav[50].startX 3537m
param *.uav[50].startY 965m
param *.uav[50].startZ 539m
param *.uav[51].startX 312m
param *.uav[51].startY 1262m
param *.uav[51].startZ 540m
param *.uav[52].startX 2185m
param *.uav[52].startY 3026m
param *.uav[52].startZ 778m
param *.uav[53].startX 3537m
param *.uav[53].startY 965m
param *.uav[53].startZ 539m
param *.uav[54].startX 312m
param *.uav[54].startY 1262m
param *.uav[54].startZ 540m
param *.uav[55].startX 2185m
param *.uav[55].startY 3026m
param *.uav[55].startZ 778m
param *.uav[56].startX 3537m
param *.uav[56].startY 965m
param *.uav[56].startZ 539m
param *.uav[57].startX 312m
param *.uav[57].startY 1262m
param *.uav[57].startZ 540m
param *.uav[58].startX 2185m
param *.uav[58].startY 3026m
param *.uav[58].startZ 778m
param *.uav[59].startX 3537m
param *.uav[59].startY 965m
param *.uav[59].startZ 539m
param *.uav[60].startX 3537m
param *.uav[60].startY 965m
param *.uav[60].startZ 539m
param *.uav[61].startX 312m
param *.uav[61].startY 1262m
param *.uav[61].startZ 540m
param *.uav[62].startX 2185m
param *.uav[62].startY 3026m
param *.uav[62].startZ 778m
param *.uav[63].startX 3537m
param *.uav[63].startY 965m
param *.uav[63].startZ 539m
param *.uav[64].startX 312m
param *.uav[64].startY 1262m
param *.uav[64].startZ 540m
param *.uav[65].startX 2185m
param *.uav[65].startY 3026m
param *.uav[65].startZ 778m
param *.uav[66].startX 3537m
param *.uav[66].startY 965m
param *.uav[66].startZ 539m
param *.uav[67].startX 312m
param *.uav[67].startY 1262m
param *.uav[67].startZ 540m
param *.uav[68].startX 2185m
param *.uav[68].startY 3026m
param *.uav[68].startZ 778m
param *.uav[69].startX 3537m
param *.uav[69].startY 965m
param *.uav[69].startZ 539m
param *.uav[70].startX 3537m
param *.uav[70].startY 965m
param *.uav[70].startZ 539m
param *.uav[71].startX 312m
param *.uav[71].startY 1262m
param *.uav[71].startZ 540m
param *.uav[72].startX 2185m
param *.uav[72].startY 3026m
param *.uav[72].startZ 778m
param *.uav[73].startX 3537m
param *.uav[73].startY 965m
param *.uav[73].startZ 539m
param *.uav[74].startX 312m
param *.uav[74].startY 1262m
param *.uav[74].startZ 540m
param *.uav[75].startX 2185m
param *.uav[75].startY 3026m
param *.uav[75].startZ 778m
param *.uav[76].startX 3537m
param *.uav[76].startY 965m
param *.uav[76].startZ 539m
param *.uav[77].startX 312m
param *.uav[77].startY 1262m
param *.uav[77].startZ 540m
param *.uav[78].startX 2185m
param *.uav[78].startY 3026m
param *.uav[78].startZ 778m
param *.uav[79].startX 3537m
param *.uav[79].startY 965m
param *.uav[79].startZ 539m
param *.uav[80].startX 3537m
param *.uav[80].startY 965m
param *.uav[80].startZ 539m
param *.uav[81].startX 312m
param *.uav[81].startY 1262m
param *.uav[81].startZ 540m
param *.uav[82].startX 2185m
param *.uav[82].startY 3026m
param *.uav[82].startZ 778m
param *.uav[83].startX 3537m
param *.uav[83].startY 965m
param *.uav[83].startZ 539m
param *.uav[84].startX 312m
param *.uav[84].startY 1262m
param *.uav[84].startZ 540m
param *.uav[85].startX 2185m
param *.uav[85].startY 3026m
param *.uav[85].startZ 778m
param *.uav[86].startX 3537m
param *.uav[86].startY 965m
param *.uav[86].startZ 539m
param *.uav[87].startX 312m
param *.uav[87].startY 1262m
param *.uav[87].startZ 540m
param *.uav[88].startX 2185m
param *.uav[88].startY 3026m
param *.uav[88].startZ 778m
param *.uav[89].startX 3537m
param *.uav[89].startY 965m
param *.uav[89].startZ 539m
param *.uav[90].startX 3537m
param *.uav[90].startY 965m
param *.uav[90].startZ 539m
param *.uav[91].startX 312m
param *.uav[91].startY 1262m
param *.uav[91].startZ 540m
param *.uav[92].startX 2185m
param *.uav[92].startY 3026m
param *.uav[92].startZ 778m
param *.uav[93].startX 3537m
param *.uav[93].startY 965m
param *.uav[93].startZ 539m
param *.uav[94].startX 312m
param *.uav[94].startY 1262m
param *.uav[94].startZ 540m
param *.uav[95].startX 2185m
param *.uav[95].startY 3026m
param *.uav[95].startZ 778m
param *.uav[96].startX 3537m
param *.uav[96].startY 965m
param *.uav[96].startZ 539m
param *.uav[97].startX 312m
param *.uav[97].startY 1262m
param *.uav[97].startZ 540m
param *.uav[98].startX 2185m
param *.uav[98].startY 3026m
param *.uav[98].startZ 778m
param *.uav[99].startX 3537m
param *.uav[99].startY 965m
param *.uav[99].startZ 539m
param *.osgEarthScene.scene "\"boston.earth\""
param *.playgroundLatitude 42.3558
param *.playgroundLongitude -71.0677
param *.playgroundWidth 400m
param *.playgroundHeight 200m
param *.channelController.connectionColor "\"#0000FF40\""
param *.channelController.showConnections false
param *.uav[*].modelURL "\"quadrocopter.small.obj.15.scale.0,0,90.rot\""
param *.uav[*].labelColor "\"#FF7C00CC\""
param *.uav[*].label2Color "\"#FF7C00EE\""
param *.uav[*].batteryCapacity 5200mAh
param *.uav[*].batteryRemaining uav[index].batteryCapacity
param *.uav[*].predictionQuantile 0.95
param *.uav[*].replacementMethod 2
param *.uav[*].weightedSumWeight 0.5
param *.cs[*].modelURL "\"chargingstation_v1.osgt.1.scale.0,0,0.rot.0,0,-15e-1.trans\""
param *.cs[*].spotsWaiting 999
param *.cs[*].spotsCharging 999
param *.cs[*].chargeEffectivenessPercentage 100
param *.cs[*].nonLinearPhaseStartPercentage 85
param *.cs[*].chargeCurrent 6.0A
param *.cs[*].prioritizeFastCharge true
param *.missionControl.replacementSearchMethod 0
param *.*.timeStep 9s

scalar OsgEarthNet.uav[0] utilizationSecMission 24898.456410853
scalar OsgEarthNet.uav[0] utilizationSecMaintenance 20331.797879091
scalar OsgEarthNet.uav[0] utilizationSecCharge 164280
scalar OsgEarthNet.uav[0] utilizationSecIdle 49689.744710056
scalar OsgEarthNet.uav[0] utilizationEnergyMission 119097.30953598
scalar OsgEarthNet.uav[0] utilizationEnergyMaintenance 94873.608722687
scalar OsgEarthNet.uav[0] utilizationEnergyCharge 215307.71972656
scalar OsgEarthNet.uav[0] utilizationEnergyOverdrawMission 0
scalar OsgEarthNet.uav[0] utilizationEnergyOverdrawMaintenance 0
scalar OsgEarthNet.uav[0] utilizationCountMissions 48
scalar OsgEarthNet.uav[0] utilizationCountManeuversMission 755
scalar OsgEarthNet.uav[0] utilizationCountManeuversMaintenance 96
scalar OsgEarthNet.uav[0] utilizationCountChargeState 48
scalar OsgEarthNet.uav[0] utilizationCountOverdrawnAfterMission 0
scalar OsgEarthNet.uav[0] utilizationCountIdleState 49
scalar OsgEarthNet.uav[0] utilizationFail 0
scalar OsgEarthNet.uav[0] simulationTime 259200
scalar OsgEarthNet.uav[1] utilizationSecMission 4734.6718150839
scalar OsgEarthNet.uav[1] utilizationSecMaintenance 4539.9333864973
scalar OsgEarthNet.uav[1] utilizationSecCharge 32255.375536882
scalar OsgEarthNet.uav[1] utilizationSecIdle 217670.01826154
scalar OsgEarthNet.uav[1] utilizationEnergyMission 22670.196296692
scalar OsgEarthNet.uav[1] utilizationEnergyMaintenance 21069.311923981
scalar OsgEarthNet.uav[1] utilizationEnergyCharge 42971.581054688
scalar OsgEarthNet.uav[1] utilizationEnergyOverdrawMission 0
scalar OsgEarthNet.uav[1] utilizationEnergyOverdrawMaintenance 0
scalar OsgEarthNet.uav[1] utilizationCountMissions 10
scalar OsgEarthNet.uav[1] utilizationCountManeuversMission 144
scalar OsgEarthNet.uav[1] utilizationCountManeuversMaintenance 20
scalar OsgEarthNet.uav[1] utilizationCountChargeState 10
scalar OsgEarthNet.uav[1] utilizationCountOverdrawnAfterMission 0
scalar OsgEarthNet.uav[1] utilizationCountIdleState 10
scalar OsgEarthNet.uav[1] utilizationFail 0
scalar OsgEarthNet.uav[1] simulationTime 259200
scalar OsgEarthNet.uav[2] utilizationSecMission 26351.525829155
scalar OsgEarthNet.uav[2] utilizationSecMaintenance 22617.132867813
scalar OsgEarthNet.uav[2] utilizationSecCharge 173690.86372132
scalar OsgEarthNet.uav[2] utilizationSecIdle 36540.476581709
scalar OsgEarthNet.uav[2] utilizationEnergyMission 126652.42977905
scalar OsgEarthNet.uav[2] utilizationEnergyMaintenance 105037.11857986
scalar OsgEarthNet.uav[2] utilizationEnergyCharge 227610.95959473
scalar OsgEarthNet.uav[2] utilizationEnergyOverdrawMission 0
scalar OsgEarthNet.uav[2] utilizationEnergyOverdrawMaintenance 0
scalar OsgEarthNet.uav[2] utilizationCountMissions 52
scalar OsgEarthNet.uav[2] utilizationCountManeuversMission 750
scalar OsgEarthNet.uav[2] utilizationCountManeuversMaintenance 104
scalar OsgEarthNet.uav[2] utilizationCountChargeState 52
scalar OsgEarthNet.uav[2] utilizationCountOverdrawnAfterMission 0
scalar OsgEarthNet.uav[2] utilizationCountIdleState 52
scalar OsgEarthNet.uav[2] utilizationFail 0
scalar OsgEarthNet.uav[2] simulationTime 259200
scalar OsgEarthNet.uav[3] utilizationSecMission 16889.828141565
scalar OsgEarthNet.uav[3] utilizationSecMaintenance 12630.742448518
scalar OsgEarthNet.uav[3] utilizationSecCharge 106080
scalar OsgEarthNet.uav[3] utilizationSecIdle 123599.42840992
scalar OsgEarthNet.uav[3] utilizationEnergyMission 81622.143436432
scalar OsgEarthNet.uav[3] utilizationEnergyMaintenance 58400.613456726
scalar OsgEarthNet.uav[3] utilizationEnergyCharge 139175.43261719
scalar OsgEarthNet.uav[3] utilizationEnergyOverdrawMission 0
scalar OsgEarthNet.uav[3] utilizationEnergyOverdrawMaintenance 270.03524780273
scalar OsgEarthNet.uav[3] utilizationCountMissions 31
scalar OsgEarthNet.uav[3] utilizationCountManeuversMission 524
scalar OsgEarthNet.uav[3] utilizationCountManeuversMaintenance 62
scalar OsgEarthNet.uav[3] utilizationCountChargeState 31
scalar OsgEarthNet.uav[3] utilizationCountOverdrawnAfterMission 1
scalar OsgEarthNet.uav[3] utilizationCountIdleState 32
scalar OsgEarthNet.uav[3] utilizationFail 0
scalar OsgEarthNet.uav[3] simulationTime 259200
scalar OsgEarthNet.uav[4] utilizationSecMission 300
scalar OsgEarthNet.uav[4] utilizationSecMaintenance 507.16988087142
scalar OsgEarthNet.uav[4] utilizationSecCharge 3290
scalar OsgEarthNet.uav[4] utilizationSecIdle 255102.82911913
scalar OsgEarthNet.uav[4] utilizationEnergyMission 1512.9277915955
scalar OsgEarthNet.uav[4] utilizationEnergyMaintenance 2567.0102043152
scalar OsgEarthNet.uav[4] utilizationEnergyCharge 4216.5366210938
scalar OsgEarthNet.uav[4] utilizationEnergyOverdrawMission 0
scalar OsgEarthNet.uav[4] utilizationEnergyOverdrawMaintenance 0
scalar OsgEarthNet.uav[4] utilizationCountMissions 1
scalar OsgEarthNet.uav[4] utilizationCountManeuversMission 15
scalar OsgEarthNet.uav[4] utilizationCountManeuversMaintenance 2
scalar OsgEarthNet.uav[4] utilizationCountChargeState 1
scalar OsgEarthNet.uav[4] utilizationCountOverdrawnAfterMission 0
scalar OsgEarthNet.uav[4] utilizationCountIdleState 2
scalar OsgEarthNet.uav[4] utilizationFail 0
scalar OsgEarthNet.uav[4] simulationTime 259200
scalar OsgEarthNet.uav[5] utilizationSecMission 26066.288823249
scalar OsgEarthNet.uav[5] utilizationSecMaintenance 24000.894308195
scalar OsgEarthNet.uav[5] utilizationSecCharge 182570.81386856
scalar OsgEarthNet.uav[5] utilizationSecIdle 26562.002
scalar OsgEarthNet.uav[5] utilizationEnergyMission 127663.03429031
scalar OsgEarthNet.uav[5] utilizationEnergyMaintenance 111820.97273254
scalar OsgEarthNet.uav[5] utilizationEnergyCharge 238236.10864258
scalar OsgEarthNet.uav[5] utilizationEnergyOverdrawMission 0
scalar OsgEarthNet.uav[5] utilizationEnergyOverdrawMaintenance 0
scalar OsgEarthNet.uav[5] utilizationCountMissions 54
scalar OsgEarthNet.uav[5] utilizationCountManeuversMission 824
scalar OsgEarthNet.uav[5] utilizationCountManeuversMaintenance 108
scalar OsgEarthNet.uav[5] utilizationCountChargeState 54
scalar OsgEarthNet.uav[5] utilizationCountOverdrawnAfterMission 0
scalar OsgEarthNet.uav[5] utilizationCountIdleState 54
scalar OsgEarthNet.uav[5] utilizationFail 0
scalar OsgEarthNet.uav[5] simulationTime 259200
scalar OsgEarthNet.uav[6] utilizationSecMission 28846.210346327
scalar OsgEarthNet.uav[6] utilizationSecMaintenance 20791.784653673
scalar OsgEarthNet.uav[6] utilizationSecCharge 176440
scalar OsgEarthNet.uav[6] utilizationSecIdle 33122.004
scalar OsgEarthNet.uav[6] utilizationEnergyMission 138815.81080047
scalar OsgEarthNet.uav[6] utilizationEnergyMaintenance 96326.930233002
scalar OsgEarthNet.uav[6] utilizationEnergyCharge 231325.50561523
scalar OsgEarthNet.uav[6] utilizationEnergyOverdrawMission 0
scalar OsgEarthNet.uav[6] utilizationEnergyOverdrawMaintenance 0
scalar OsgEarthNet.uav[6] utilizationCountMissions 52
scalar OsgEarthNet.uav[6] utilizationCountManeuversMission 779
scalar OsgEarthNet.uav[6] utilizationCountManeuversMaintenance 105
scalar OsgEarthNet.uav[6] utilizationCountChargeState 52
scalar OsgEarthNet.uav[6] utilizationCountOverdrawnAfterMission 0
scalar OsgEarthNet.uav[6] utilizationCountIdleState 53
scalar OsgEarthNet.uav[6] utilizationFail 0
scalar OsgEarthNet.uav[6] simulationTime 259200
scalar OsgEarthNet.uav[7] utilizationSecMission 25017.02658283
scalar OsgEarthNet.uav[7] utilizationSecMaintenance 21794.490336764
scalar OsgEarthNet.uav[7] utilizationSecCharge 170560.82593393
scalar OsgEarthNet.uav[7] utilizationSecIdle 41827.656146473
scalar OsgEarthNet.uav[7] utilizationEnergyMission 123150.69550705
scalar OsgEarthNet.uav[7] utilizationEnergyMaintenance 101555.03282928
scalar OsgEarthNet.uav[7] utilizationEnergyCharge 224150.65673828
scalar OsgEarthNet.uav[7] utilizationEnergyOverdrawMission 0
scalar OsgEarthNet.uav[7] utilizationEnergyOverdrawMaintenance 298.33209991455
scalar OsgEarthNet.uav[7] utilizationCountMissions 50
scalar OsgEarthNet.uav[7] utilizationCountManeuversMission 866
scalar OsgEarthNet.uav[7] utilizationCountManeuversMaintenance 100
scalar OsgEarthNet.uav[7] utilizationCountChargeState 50
scalar OsgEarthNet.uav[7] utilizationCountOverdrawnAfterMission 2
scalar OsgEarthNet.uav[7] utilizationCountIdleState 50
scalar OsgEarthNet.uav[7] utilizationFail 0
scalar OsgEarthNet.uav[7] simulationTime 259200
scalar OsgEarthNet.uav[8] utilizationSecMission 26956.301834533
scalar OsgEarthNet.uav[8] utilizationSecMaintenance 24160.980872891
scalar OsgEarthNet.uav[8] utilizationSecCharge 184470.71629258
scalar OsgEarthNet.uav[8] utilizationSecIdle 23612
scalar OsgEarthNet.uav[8] utilizationEnergyMission 131221.93725648
scalar OsgEarthNet.uav[8] utilizationEnergyMaintenance 113107.79758835
scalar OsgEarthNet.uav[8] utilizationEnergyCharge 241721.67871094
scalar OsgEarthNet.uav[8] utilizationEnergyOverdrawMission 0
scalar OsgEarthNet.uav[8] utilizationEnergyOverdrawMaintenance 0
scalar OsgEarthNet.uav[8] utilizationCountMissions 55
scalar OsgEarthNet.uav[8] utilizationCountManeuversMission 871
scalar OsgEarthNet.uav[8] utilizationCountManeuversMaintenance 109
scalar OsgEarthNet.uav[8] utilizationCountChargeState 55
scalar OsgEarthNet.uav[8] utilizationCountOverdrawnAfterMission 0
scalar OsgEarthNet.uav[8] utilizationCountIdleState 55
scalar OsgEarthNet.uav[8] utilizationFail 0
scalar OsgEarthNet.uav[8] simulationTime 259200
scalar OsgEarthNet.uav[9] utilizationSecMission 600
scalar OsgEarthNet.uav[9] utilizationSecMaintenance 363.8841636065
scalar OsgEarthNet.uav[9] utilizationSecCharge 3440
scalar OsgEarthNet.uav[9] utilizationSecIdle 254796.11483639
scalar OsgEarthNet.uav[9] utilizationEnergyMission 3159.0239677429
scalar OsgEarthNet.uav[9] utilizationEnergyMaintenance 1716.7254142761
scalar OsgEarthNet.uav[9] utilizationEnergyCharge 4518.0224609375
scalar OsgEarthNet.uav[9] utilizationEnergyOverdrawMission 0
scalar OsgEarthNet.uav[9] utilizationEnergyOverdrawMaintenance 0
scalar OsgEarthNet.uav[9] utilizationCountMissions 1
scalar OsgEarthNet.uav[9] utilizationCountManeuversMission 30
scalar OsgEarthNet.uav[9] utilizationCountManeuversMaintenance 2
scalar OsgEarthNet.uav[9] utilizationCountChargeState 1
scalar OsgEarthNet.uav[9] utilizationCountOverdrawnAfterMission 0
scalar OsgEarthNet.uav[9] utilizationCountIdleState 2
scalar OsgEarthNet.uav[9] utilizationFail 0
scalar OsgEarthNet.uav[9] simulationTime 259200
scalar OsgEarthNet.uav[10] utilizationSecMission 416.51428501943
scalar OsgEarthNet.uav[10] utilizationSecMaintenance 614.10359476363
scalar OsgEarthNet.uav[10] utilizationSecCharge 3660
scalar OsgEarthNet.uav[10] utilizationSecIdle 254509.38112022
scalar OsgEarthNet.uav[10] utilizationEnergyMission 2038.7892150879
scalar OsgEarthNet.uav[10] utilizationEnergyMaintenance 2926.3816642761
scalar OsgEarthNet.uav[10] utilizationEnergyCharge 4965.169921875
scalar OsgEarthNet.uav[10] utilizationEnergyOverdrawMission 0
scalar OsgEarthNet.uav[10] utilizationEnergyOverdrawMaintenance 0
scalar OsgEarthNet.uav[10] utilizationCountMissions 1
scalar OsgEarthNet.uav[10] utilizationCountManeuversMission 8
scalar OsgEarthNet.uav[10] utilizationCountManeuversMaintenance 2
scalar OsgEarthNet.uav[10] utilizationCountChargeState 1
scalar OsgEarthNet.uav[10] utilizationCountOverdrawnAfterMission 0
scalar OsgEarthNet.uav[10] utilizationCountIdleState 2
scalar OsgEarthNet.uav[10] utilizationFail 0
scalar OsgEarthNet.uav[10] simulationTime 259200
scalar OsgEarthNet.uav[11] utilizationSecMission 21719.904768351
scalar OsgEarthNet.uav[11] utilizationSecMaintenance 17732.973769163
scalar OsgEarthNet.uav[11] utilizationSecCharge 139023.36146167
scalar OsgEarthNet.uav[11] utilizationSecIdle 80723.759000815
scalar OsgEarthNet.uav[11] utilizationEnergyMission 104570.60535049
scalar OsgEarthNet.uav[11] utilizationEnergyMaintenance 81826.946468353
scalar OsgEarthNet.uav[11] utilizationEnergyCharge 181880.07269287
scalar OsgEarthNet.uav[11] utilizationEnergyOverdrawMission 0
scalar OsgEarthNet.uav[11] utilizationEnergyOverdrawMaintenance 0
scalar OsgEarthNet.uav[11] utilizationCountMissions 42
scalar OsgEarthNet.uav[11] utilizationCountManeuversMission 668
scalar OsgEarthNet.uav[11] utilizationCountManeuversMaintenance 84
scalar OsgEarthNet.uav[11] utilizationCountChargeState 42
scalar OsgEarthNet.uav[11] utilizationCountOverdrawnAfterMission 0
scalar OsgEarthNet.uav[11] utilizationCountIdleState 42
scalar OsgEarthNet.uav[11] utilizationFail 0
scalar OsgEarthNet.uav[11] simulationTime 259200
scalar OsgEarthNet.uav[12] utilizationSecMission 21004.666968404
scalar OsgEarthNet.uav[12] utilizationSecMaintenance 19687.169481265
scalar OsgEarthNet.uav[12] utilizationSecCharge 147506.15855033
scalar OsgEarthNet.uav[12] utilizationSecIdle 71002.004
scalar OsgEarthNet.uav[12] utilizationEnergyMission 102654.53493118
scalar OsgEarthNet.uav[12] utilizationEnergyMaintenance 92103.748188019
scalar OsgEarthNet.uav[12] utilizationEnergyCharge 193257.61572266
scalar OsgEarthNet.uav[12] utilizationEnergyOverdrawMission 0
scalar OsgEarthNet.uav[12] utilizationEnergyOverdrawMaintenance 0
scalar OsgEarthNet.uav[12] utilizationCountMissions 44
scalar OsgEarthNet.uav[12] utilizationCountManeuversMission 701
scalar OsgEarthNet.uav[12] utilizationCountManeuversMaintenance 88
scalar OsgEarthNet.uav[12] utilizationCountChargeState 44
scalar OsgEarthNet.uav[12] utilizationCountOverdrawnAfterMission 0
scalar OsgEarthNet.uav[12] utilizationCountIdleState 44
scalar OsgEarthNet.uav[12] utilizationFail 0
scalar OsgEarthNet.uav[12] simulationTime 259200
scalar OsgEarthNet.uav[13] utilizationSecMission 22418.814363522
scalar OsgEarthNet.uav[13] utilizationSecMaintenance 21932.447553174
scalar OsgEarthNet.uav[13] utilizationSecCharge 162850
scalar OsgEarthNet.uav[13] utilizationSecIdle 51998.737083304
scalar OsgEarthNet.uav[13] utilizationEnergyMission 108859.36931229
scalar OsgEarthNet.uav[13] utilizationEnergyMaintenance 102564.38247681
scalar OsgEarthNet.uav[13] utilizationEnergyCharge 212271.11987305
scalar OsgEarthNet.uav[13] utilizationEnergyOverdrawMission 0
scalar OsgEarthNet.uav[13] utilizationEnergyOverdrawMaintenance 0
scalar OsgEarthNet.uav[13] utilizationCountMissions 48
scalar OsgEarthNet.uav[13] utilizationCountManeuversMission 733
scalar OsgEarthNet.uav[13] utilizationCountManeuversMaintenance 96
scalar OsgEarthNet.uav[13] utilizationCountChargeState 48
scalar OsgEarthNet.uav[13] utilizationCountOverdrawnAfterMission 0
scalar OsgEarthNet.uav[13] utilizationCountIdleState 49
scalar OsgEarthNet.uav[13] utilizationFail 0
scalar OsgEarthNet.uav[13] simulationTime 259200
scalar OsgEarthNet.uav[14] utilizationSecMission 26789.204225947
scalar OsgEarthNet.uav[14] utilizationSecMaintenance 19188.786774053
scalar OsgEarthNet.uav[14] utilizationSecCharge 163800
scalar OsgEarthNet.uav[14] utilizationSecIdle 49422.008
scalar OsgEarthNet.uav[14] utilizationEnergyMission 128200.22661209
scalar OsgEarthNet.uav[14] utilizationEnergyMaintenance 89258.091749676
scalar OsgEarthNet.uav[14] utilizationEnergyCharge 214767.52880859
scalar OsgEarthNet.uav[14] utilizationEnergyOverdrawMission 0
scalar OsgEarthNet.uav[14] utilizationEnergyOverdrawMaintenance 0
scalar OsgEarthNet.uav[14] utilizationCountMissions 48
scalar OsgEarthNet.uav[14] utilizationCountManeuversMission 672
scalar OsgEarthNet.uav[14] utilizationCountManeuversMaintenance 97
scalar OsgEarthNet.uav[14] utilizationCountChargeState 48
scalar OsgEarthNet.uav[14] utilizationCountOverdrawnAfterMission 0
scalar OsgEarthNet.uav[14] utilizationCountIdleState 49
scalar OsgEarthNet.uav[14] utilizationFail 0
scalar OsgEarthNet.uav[14] simulationTime 259200
scalar OsgEarthNet.uav[15] utilizationSecMission 26252.903953753
scalar OsgEarthNet.uav[15] utilizationSecMaintenance 23798.242171331
scalar OsgEarthNet.uav[15] utilizationSecCharge 182960
scalar OsgEarthNet.uav[15] utilizationSecIdle 26188.852874916
scalar OsgEarthNet.uav[15] utilizationEnergyMission 128653.3675499
scalar OsgEarthNet.uav[15] utilizationEnergyMaintenance 110610.14632034
scalar OsgEarthNet.uav[15] utilizationEnergyCharge 238465.60058594
scalar OsgEarthNet.uav[15] utilizationEnergyOverdrawMission 0
scalar OsgEarthNet.uav[15] utilizationEnergyOverdrawMaintenance 0
scalar OsgEarthNet.uav[15] utilizationCountMissions 54
scalar OsgEarthNet.uav[15] utilizationCountManeuversMission 814
scalar OsgEarthNet.uav[15] utilizationCountManeuversMaintenance 108
scalar OsgEarthNet.uav[15] utilizationCountChargeState 54
scalar OsgEarthNet.uav[15] utilizationCountOverdrawnAfterMission 0
scalar OsgEarthNet.uav[15] utilizationCountIdleState 55
scalar OsgEarthNet.uav[15] utilizationFail 0
scalar OsgEarthNet.uav[15] simulationTime 259200
scalar OsgEarthNet.uav[16] utilizationSecMission 24241.284298525
scalar OsgEarthNet.uav[16] utilizationSecMaintenance 23321.88488679
scalar OsgEarthNet.uav[16] utilizationSecCharge 173764.82481469
scalar OsgEarthNet.uav[16] utilizationSecIdle 37872.005
scalar OsgEarthNet.uav[16] utilizationEnergyMission 119702.00159836
scalar OsgEarthNet.uav[16] utilizationEnergyMaintenance 109585.01856995
scalar OsgEarthNet.uav[16] utilizationEnergyCharge 227686.70184326
scalar OsgEarthNet.uav[16] utilizationEnergyOverdrawMission 0
scalar OsgEarthNet.uav[16] utilizationEnergyOverdrawMaintenance 0
scalar OsgEarthNet.uav[16] utilizationCountMissions 52
scalar OsgEarthNet.uav[16] utilizationCountManeuversMission 894
scalar OsgEarthNet.uav[16] utilizationCountManeuversMaintenance 104
scalar OsgEarthNet.uav[16] utilizationCountChargeState 52
scalar OsgEarthNet.uav[16] utilizationCountOverdrawnAfterMission 0
scalar OsgEarthNet.uav[16] utilizationCountIdleState 52
scalar OsgEarthNet.uav[16] utilizationFail 0
scalar OsgEarthNet.uav[16] simulationTime 259200
scalar OsgEarthNet.uav[17] utilizationSecMission 26619.594991019
scalar OsgEarthNet.uav[17] utilizationSecMaintenance 22568.399008981
scalar OsgEarthNet.uav[17] utilizationSecCharge 174440
scalar OsgEarthNet.uav[17] utilizationSecIdle 35572.005
scalar OsgEarthNet.uav[17] utilizationEnergyMission 129124.03062439
scalar OsgEarthNet.uav[17] utilizationEnergyMaintenance 105006.09592753
scalar OsgEarthNet.uav[17] utilizationEnergyCharge 228688.50097656
scalar OsgEarthNet.uav[17] utilizationEnergyOverdrawMission 0
scalar OsgEarthNet.uav[17] utilizationEnergyOverdrawMaintenance 162.54417419434
scalar OsgEarthNet.uav[17] utilizationCountMissions 52
scalar OsgEarthNet.uav[17] utilizationCountManeuversMission 797
scalar OsgEarthNet.uav[17] utilizationCountManeuversMaintenance 104
scalar OsgEarthNet.uav[17] utilizationCountChargeState 51
scalar OsgEarthNet.uav[17] utilizationCountOverdrawnAfterMission 1
scalar OsgEarthNet.uav[17] utilizationCountIdleState 52
scalar OsgEarthNet.uav[17] utilizationFail 0
scalar OsgEarthNet.uav[17] simulationTime 259200
scalar OsgEarthNet.uav[18] utilizationSecMission 25271.398056316
scalar OsgEarthNet.uav[18] utilizationSecMaintenance 22507.199117649
scalar OsgEarthNet.uav[18] utilizationSecCharge 169869.39782604
scalar OsgEarthNet.uav[18] utilizationSecIdle 41552.004
scalar OsgEarthNet.uav[18] utilizationEnergyMission 122135.99021912
scalar OsgEarthNet.uav[18] utilizationEnergyMaintenance 104022.78276062
scalar OsgEarthNet.uav[18] utilizationEnergyCharge 222397.6048584
scalar OsgEarthNet.uav[18] utilizationEnergyOverdrawMission 0
scalar OsgEarthNet.uav[18] utilizationEnergyOverdrawMaintenance 0
scalar OsgEarthNet.uav[18] utilizationCountMissions 51
scalar OsgEarthNet.uav[18] utilizationCountManeuversMission 759
scalar OsgEarthNet.uav[18] utilizationCountManeuversMaintenance 102
scalar OsgEarthNet.uav[18] utilizationCountChargeState 51
scalar OsgEarthNet.uav[18] utilizationCountOverdrawnAfterMission 0
scalar OsgEarthNet.uav[18] utilizationCountIdleState 51
scalar OsgEarthNet.uav[18] utilizationFail 0
scalar OsgEarthNet.uav[18] simulationTime 259200
scalar OsgEarthNet.uav[19] utilizationSecMission 18963.732973145
scalar OsgEarthNet.uav[19] utilizationSecMaintenance 17055.335827242
scalar OsgEarthNet.uav[19] utilizationSecCharge 128978.91619961
scalar OsgEarthNet.uav[19] utilizationSecIdle 94202.014
scalar OsgEarthNet.uav[19] utilizationEnergyMission 92440.669887543
scalar OsgEarthNet.uav[19] utilizationEnergyMaintenance 79384.298213959
scalar OsgEarthNet.uav[19] utilizationEnergyCharge 168618.16674805
scalar OsgEarthNet.uav[19] utilizationEnergyOverdrawMission 0
scalar OsgEarthNet.uav[19] utilizationEnergyOverdrawMaintenance 0
scalar OsgEarthNet.uav[19] utilizationCountMissions 39
scalar OsgEarthNet.uav[19] utilizationCountManeuversMission 647
scalar OsgEarthNet.uav[19] utilizationCountManeuversMaintenance 78
scalar OsgEarthNet.uav[19] utilizationCountChargeState 39
scalar OsgEarthNet.uav[19] utilizationCountOverdrawnAfterMission 0
scalar OsgEarthNet.uav[19] utilizationCountIdleState 39
scalar OsgEarthNet.uav[19] utilizationFail 0
scalar OsgEarthNet.uav[19] simulationTime 259200
scalar OsgEarthNet.uav[20] utilizationSecMission 26596.900764
scalar OsgEarthNet.uav[20] utilizationSecMaintenance 23742.184410517
scalar OsgEarthNet.uav[20] utilizationSecCharge 179278.91182548
scalar OsgEarthNet.uav[20] utilizationSecIdle 29582.002
scalar OsgEarthNet.uav[20] utilizationEnergyMission 126273.34176254
scalar OsgEarthNet.uav[20] utilizationEnergyMaintenance 110576.98583984
scalar OsgEarthNet.uav[20] utilizationEnergyCharge 233998.95861816
scalar OsgEarthNet.uav[20] utilizationEnergyOverdrawMission 0
scalar OsgEarthNet.uav[20] utilizationEnergyOverdrawMaintenance 0
scalar OsgEarthNet.uav[20] utilizationCountMissions 54
scalar OsgEarthNet.uav[20] utilizationCountManeuversMission 778
scalar OsgEarthNet.uav[20] utilizationCountManeuversMaintenance 108
scalar OsgEarthNet.uav[20] utilizationCountChargeState 54
scalar OsgEarthNet.uav[20] utilizationCountOverdrawnAfterMission 0
scalar OsgEarthNet.uav[20] utilizationCountIdleState 54
scalar OsgEarthNet.uav[20] utilizationFail 0
scalar OsgEarthNet.uav[20] simulationTime 259200
scalar OsgEarthNet.uav[21] utilizationSecMission 26854.296371181
scalar OsgEarthNet.uav[21] utilizationSecMaintenance 23582.631323445
scalar OsgEarthNet.uav[21] utilizationSecCharge 181928.45941586
scalar OsgEarthNet.uav[21] utilizationSecIdle 26834.611889516
scalar OsgEarthNet.uav[21] utilizationEnergyMission 131341.62093735
scalar OsgEarthNet.uav[21] utilizationEnergyMaintenance 110767.26854324
scalar OsgEarthNet.uav[21] utilizationEnergyCharge 239624.37255859
scalar OsgEarthNet.uav[21] utilizationEnergyOverdrawMission 0
scalar OsgEarthNet.uav[21] utilizationEnergyOverdrawMaintenance 166.43391418457
scalar OsgEarthNet.uav[21] utilizationCountMissions 54
scalar OsgEarthNet.uav[21] utilizationCountManeuversMission 893
scalar OsgEarthNet.uav[21] utilizationCountManeuversMaintenance 108
scalar OsgEarthNet.uav[21] utilizationCountChargeState 54
scalar OsgEarthNet.uav[21] utilizationCountOverdrawnAfterMission 1
scalar OsgEarthNet.uav[21] utilizationCountIdleState 54
scalar OsgEarthNet.uav[21] utilizationFail 0
scalar OsgEarthNet.uav[21] simulationTime 259200
scalar OsgEarthNet.uav[22] utilizationSecMission 16607.893267144
scalar OsgEarthNet.uav[22] utilizationSecMaintenance 13924.897888418
scalar OsgEarthNet.uav[22] utilizationSecCharge 111887.74949635
scalar OsgEarthNet.uav[22] utilizationSecIdle 116779.45834809
scalar OsgEarthNet.uav[22] utilizationEnergyMission 80449.469688416
scalar OsgEarthNet.uav[22] utilizationEnergyMaintenance 66044.14138031
scalar OsgEarthNet.uav[22] utilizationEnergyCharge 146523.421875
scalar OsgEarthNet.uav[22] utilizationEnergyOverdrawMission 0
scalar OsgEarthNet.uav[22] utilizationEnergyOverdrawMaintenance 0
scalar OsgEarthNet.uav[22] utilizationCountMissions 33
scalar OsgEarthNet.uav[22] utilizationCountManeuversMission 485
scalar OsgEarthNet.uav[22] utilizationCountManeuversMaintenance 66
scalar OsgEarthNet.uav[22] utilizationCountChargeState 33
scalar OsgEarthNet.uav[22] utilizationCountOverdrawnAfterMission 0
scalar OsgEarthNet.uav[22] utilizationCountIdleState 33
scalar OsgEarthNet.uav[22] utilizationFail 0
scalar OsgEarthNet.uav[22] simulationTime 259200
scalar OsgEarthNet.uav[23] utilizationSecMission 25452.098833532
scalar OsgEarthNet.uav[23] utilizationSecMaintenance 25104.068789614
scalar OsgEarthNet.uav[23] utilizationSecCharge 180462.3177159
scalar OsgEarthNet.uav[23] utilizationSecIdle 28181.51366095
scalar OsgEarthNet.uav[23] utilizationEnergyMission 123647.37501526
scalar OsgEarthNet.uav[23] utilizationEnergyMaintenance 117282.74323654
scalar OsgEarthNet.uav[23] utilizationEnergyCharge 236011.87866211
scalar OsgEarthNet.uav[23] utilizationEnergyOverdrawMission 0
scalar OsgEarthNet.uav[23] utilizationEnergyOverdrawMaintenance 0
scalar OsgEarthNet.uav[23] utilizationCountMissions 54
scalar OsgEarthNet.uav[23] utilizationCountManeuversMission 794
scalar OsgEarthNet.uav[23] utilizationCountManeuversMaintenance 108
scalar OsgEarthNet.uav[23] utilizationCountChargeState 54
scalar OsgEarthNet.uav[23] utilizationCountOverdrawnAfterMission 0
scalar OsgEarthNet.uav[23] utilizationCountIdleState 54
scalar OsgEarthNet.uav[23] utilizationFail 0
scalar OsgEarthNet.uav[23] simulationTime 259200
scalar OsgEarthNet.uav[24] utilizationSecMission 25554.812908532
scalar OsgEarthNet.uav[24] utilizationSecMaintenance 20902.937611419
scalar OsgEarthNet.uav[24] utilizationSecCharge 165710.24148005
scalar OsgEarthNet.uav[24] utilizationSecIdle 47032.007
scalar OsgEarthNet.uav[24] utilizationEnergyMission 123254.81557465
scalar OsgEarthNet.uav[24] utilizationEnergyMaintenance 96856.210132599
scalar OsgEarthNet.uav[24] utilizationEnergyCharge 218420.56933594
scalar OsgEarthNet.uav[24] utilizationEnergyOverdrawMission 0
scalar OsgEarthNet.uav[24] utilizationEnergyOverdrawMaintenance 201.4432220459
scalar OsgEarthNet.uav[24] utilizationCountMissions 49
scalar OsgEarthNet.uav[24] utilizationCountManeuversMission 790
scalar OsgEarthNet.uav[24] utilizationCountManeuversMaintenance 98
scalar OsgEarthNet.uav[24] utilizationCountChargeState 49
scalar OsgEarthNet.uav[24] utilizationCountOverdrawnAfterMission 1
scalar OsgEarthNet.uav[24] utilizationCountIdleState 49
scalar OsgEarthNet.uav[24] utilizationFail 0
scalar OsgEarthNet.uav[24] simulationTime 259200
scalar OsgEarthNet.uav[25] utilizationSecMission 23215.349286834
scalar OsgEarthNet.uav[25] utilizationSecMaintenance 20432.644713166
scalar OsgEarthNet.uav[25] utilizationSecCharge 158500
scalar OsgEarthNet.uav[25] utilizationSecIdle 57052.005
scalar OsgEarthNet.uav[25] utilizationEnergyMission 111483.91094518
scalar OsgEarthNet.uav[25] utilizationEnergyMaintenance 95878.852676392
scalar OsgEarthNet.uav[25] utilizationEnergyCharge 206595.44604492
scalar OsgEarthNet.uav[25] utilizationEnergyOverdrawMission 0
scalar OsgEarthNet.uav[25] utilizationEnergyOverdrawMaintenance 0
scalar OsgEarthNet.uav[25] utilizationCountMissions 47
scalar OsgEarthNet.uav[25] utilizationCountManeuversMission 709
scalar OsgEarthNet.uav[25] utilizationCountManeuversMaintenance 95
scalar OsgEarthNet.uav[25] utilizationCountChargeState 47
scalar OsgEarthNet.uav[25] utilizationCountOverdrawnAfterMission 0
scalar OsgEarthNet.uav[25] utilizationCountIdleState 48
scalar OsgEarthNet.uav[25] utilizationFail 0
scalar OsgEarthNet.uav[25] simulationTime 259200
scalar OsgEarthNet.uav[26] utilizationSecMission 650.68693590098
scalar OsgEarthNet.uav[26] utilizationSecMaintenance 350.31285707965
scalar OsgEarthNet.uav[26] utilizationSecCharge 3510
scalar OsgEarthNet.uav[26] utilizationSecIdle 254688.99920702
scalar OsgEarthNet.uav[26] utilizationEnergyMission 3089.6137390137
scalar OsgEarthNet.uav[26] utilizationEnergyMaintenance 1538.1485519409
scalar OsgEarthNet.uav[26] utilizationEnergyCharge 4627.767578125
scalar OsgEarthNet.uav[26] utilizationEnergyOverdrawMission 0
scalar OsgEarthNet.uav[26] utilizationEnergyOverdrawMaintenance 0
scalar OsgEarthNet.uav[26] utilizationCountMissions 1
scalar OsgEarthNet.uav[26] utilizationCountManeuversMission 9
scalar OsgEarthNet.uav[26] utilizationCountManeuversMaintenance 2
scalar OsgEarthNet.uav[26] utilizationCountChargeState 1
scalar OsgEarthNet.uav[26] utilizationCountOverdrawnAfterMission 0
scalar OsgEarthNet.uav[26] utilizationCountIdleState 2
scalar OsgEarthNet.uav[26] utilizationFail 0
scalar OsgEarthNet.uav[26] simulationTime 259200
scalar OsgEarthNet.uav[27] utilizationSecMission 20458.962245437
scalar OsgEarthNet.uav[27] utilizationSecMaintenance 15875.592665872
scalar OsgEarthNet.uav[27] utilizationSecCharge 129830
scalar OsgEarthNet.uav[27] utilizationSecIdle 93035.444088691
scalar OsgEarthNet.uav[27] utilizationEnergyMission 97683.584545135
scalar OsgEarthNet.uav[27] utilizationEnergyMaintenance 75183.98185994
scalar OsgEarthNet.uav[27] utilizationEnergyCharge 170429.19482422
scalar OsgEarthNet.uav[27] utilizationEnergyOverdrawMission 0
scalar OsgEarthNet.uav[27] utilizationEnergyOverdrawMaintenance 0
scalar OsgEarthNet.uav[27] utilizationCountMissions 38
scalar OsgEarthNet.uav[27] utilizationCountManeuversMission 537
scalar OsgEarthNet.uav[27] utilizationCountManeuversMaintenance 77
scalar OsgEarthNet.uav[27] utilizationCountChargeState 38
scalar OsgEarthNet.uav[27] utilizationCountOverdrawnAfterMission 0
scalar OsgEarthNet.uav[27] utilizationCountIdleState 39
scalar OsgEarthNet.uav[27] utilizationFail 0
scalar OsgEarthNet.uav[27] simulationTime 259200
scalar OsgEarthNet.uav[28] utilizationSecMission 26167.210342531
scalar OsgEarthNet.uav[28] utilizationSecMaintenance 23702.216977158
scalar OsgEarthNet.uav[28] utilizationSecCharge 178638.56868031
scalar OsgEarthNet.uav[28] utilizationSecIdle 30692.003
scalar OsgEarthNet.uav[28] utilizationEnergyMission 126321.00007629
scalar OsgEarthNet.uav[28] utilizationEnergyMaintenance 109972.45264053
scalar OsgEarthNet.uav[28] utilizationEnergyCharge 234825.16699219
scalar OsgEarthNet.uav[28] utilizationEnergyOverdrawMission 0
scalar OsgEarthNet.uav[28] utilizationEnergyOverdrawMaintenance 0
scalar OsgEarthNet.uav[28] utilizationCountMissions 53
scalar OsgEarthNet.uav[28] utilizationCountManeuversMission 748
scalar OsgEarthNet.uav[28] utilizationCountManeuversMaintenance 106
scalar OsgEarthNet.uav[28] utilizationCountChargeState 53
scalar OsgEarthNet.uav[28] utilizationCountOverdrawnAfterMission 0
scalar OsgEarthNet.uav[28] utilizationCountIdleState 53
scalar OsgEarthNet.uav[28] utilizationFail 0
scalar OsgEarthNet.uav[28] simulationTime 259200
scalar OsgEarthNet.uav[29] utilizationSecMission 27322.27720551
scalar OsgEarthNet.uav[29] utilizationSecMaintenance 23435.122665801
scalar OsgEarthNet.uav[29] utilizationSecCharge 184900.59912869
scalar OsgEarthNet.uav[29] utilizationSecIdle 23542
scalar OsgEarthNet.uav[29] utilizationEnergyMission 134776.02335739
scalar OsgEarthNet.uav[29] utilizationEnergyMaintenance 108503.7362175
scalar OsgEarthNet.uav[29] utilizationEnergyCharge 241004.8659668
scalar OsgEarthNet.uav[29] utilizationEnergyOverdrawMission 0
scalar OsgEarthNet.uav[29] utilizationEnergyOverdrawMaintenance 0
scalar OsgEarthNet.uav[29] utilizationCountMissions 55
scalar OsgEarthNet.uav[29] utilizationCountManeuversMission 884
scalar OsgEarthNet.uav[29] utilizationCountManeuversMaintenance 110
scalar OsgEarthNet.uav[29] utilizationCountChargeState 55
scalar OsgEarthNet.uav[29] utilizationCountOverdrawnAfterMission 0
scalar OsgEarthNet.uav[29] utilizationCountIdleState 55
scalar OsgEarthNet.uav[29] utilizationFail 0
scalar OsgEarthNet.uav[29] simulationTime 259200
scalar OsgEarthNet.uav[30] utilizationSecMission 650.68693590098
scalar OsgEarthNet.uav[30] utilizationSecMaintenance 350.31285707965
scalar OsgEarthNet.uav[30] utilizationSecCharge 3450
scalar OsgEarthNet.uav[30] utilizationSecIdle 254748.99920702
scalar OsgEarthNet.uav[30] utilizationEnergyMission 2964.4428253174
scalar OsgEarthNet.uav[30] utilizationEnergyMaintenance 1620.0998764038
scalar OsgEarthNet.uav[30] utilizationEnergyCharge 4584.5454101562
scalar OsgEarthNet.uav[30] utilizationEnergyOverdrawMission 0
scalar OsgEarthNet.uav[30] utilizationEnergyOverdrawMaintenance 0
scalar OsgEarthNet.uav[30] utilizationCountMissions 1
scalar OsgEarthNet.uav[30] utilizationCountManeuversMission 9
scalar OsgEarthNet.uav[30] utilizationCountManeuversMaintenance 2
scalar OsgEarthNet.uav[30] utilizationCountChargeState 1
scalar OsgEarthNet.uav[30] utilizationCountOverdrawnAfterMission 0
scalar OsgEarthNet.uav[30] utilizationCountIdleState 2
scalar OsgEarthNet.uav[30] utilizationFail 0
scalar OsgEarthNet.uav[30] simulationTime 259200
scalar OsgEarthNet.uav[31] utilizationSecMission 23791.964927927
scalar OsgEarthNet.uav[31] utilizationSecMaintenance 20664.956893258
scalar OsgEarthNet.uav[31] utilizationSecCharge 159243.06924409
scalar OsgEarthNet.uav[31] utilizationSecIdle 55500.007934721
scalar OsgEarthNet.uav[31] utilizationEnergyMission 113732.22115326
scalar OsgEarthNet.uav[31] utilizationEnergyMaintenance 94687.554042816
scalar OsgEarthNet.uav[31] utilizationEnergyCharge 210084.50048828
scalar OsgEarthNet.uav[31] utilizationEnergyOverdrawMission 0
scalar OsgEarthNet.uav[31] utilizationEnergyOverdrawMaintenance 0
scalar OsgEarthNet.uav[31] utilizationCountMissions 47
scalar OsgEarthNet.uav[31] utilizationCountManeuversMission 667
scalar OsgEarthNet.uav[31] utilizationCountManeuversMaintenance 94
scalar OsgEarthNet.uav[31] utilizationCountChargeState 47
scalar OsgEarthNet.uav[31] utilizationCountOverdrawnAfterMission 0
scalar OsgEarthNet.uav[31] utilizationCountIdleState 47
scalar OsgEarthNet.uav[31] utilizationFail 0
scalar OsgEarthNet.uav[31] simulationTime 259200
scalar OsgEarthNet.uav[32] utilizationSecMission 22055.68078091
scalar OsgEarthNet.uav[32] utilizationSecMaintenance 18682.159573171
scalar OsgEarthNet.uav[32] utilizationSecCharge 146612.32183188
scalar OsgEarthNet.uav[32] utilizationSecIdle 71849.83681404
scalar OsgEarthNet.uav[32] utilizationEnergyMission 106821.47812271
scalar OsgEarthNet.uav[32] utilizationEnergyMaintenance 86869.154323578
scalar OsgEarthNet.uav[32] utilizationEnergyCharge 193643.82641602
scalar OsgEarthNet.uav[32] utilizationEnergyOverdrawMission 0
scalar OsgEarthNet.uav[32] utilizationEnergyOverdrawMaintenance 0
scalar OsgEarthNet.uav[32] utilizationCountMissions 43
scalar OsgEarthNet.uav[32] utilizationCountManeuversMission 713
scalar OsgEarthNet.uav[32] utilizationCountManeuversMaintenance 86
scalar OsgEarthNet.uav[32] utilizationCountChargeState 43
scalar OsgEarthNet.uav[32] utilizationCountOverdrawnAfterMission 0
scalar OsgEarthNet.uav[32] utilizationCountIdleState 43
scalar OsgEarthNet.uav[32] utilizationFail 0
scalar OsgEarthNet.uav[32] simulationTime 259200
scalar OsgEarthNet.uav[33] utilizationSecMission 24935.812578586
scalar OsgEarthNet.uav[33] utilizationSecMaintenance 23301.420456075
scalar OsgEarthNet.uav[33] utilizationSecCharge 173920
scalar OsgEarthNet.uav[33] utilizationSecIdle 37042.765965339
scalar OsgEarthNet.uav[33] utilizationEnergyMission 121561.64612985
scalar OsgEarthNet.uav[33] utilizationEnergyMaintenance 107773.77434158
scalar OsgEarthNet.uav[33] utilizationEnergyCharge 227959.96655273
scalar OsgEarthNet.uav[33] utilizationEnergyOverdrawMission 0
scalar OsgEarthNet.uav[33] utilizationEnergyOverdrawMaintenance 0
scalar OsgEarthNet.uav[33] utilizationCountMissions 51
scalar OsgEarthNet.uav[33] utilizationCountManeuversMission 835
scalar OsgEarthNet.uav[33] utilizationCountManeuversMaintenance 103
scalar OsgEarthNet.uav[33] utilizationCountChargeState 51
scalar OsgEarthNet.uav[33] utilizationCountOverdrawnAfterMission 0
scalar OsgEarthNet.uav[33] utilizationCountIdleState 52
scalar OsgEarthNet.uav[33] utilizationFail 0
scalar OsgEarthNet.uav[33] simulationTime 259200
scalar OsgEarthNet.uav[34] utilizationSecMission 4257.0806078618
scalar OsgEarthNet.uav[34] utilizationSecMaintenance 2586.4533920156
scalar OsgEarthNet.uav[34] utilizationSecCharge 24360
scalar OsgEarthNet.uav[34] utilizationSecIdle 227996.46500012
scalar OsgEarthNet.uav[34] utilizationEnergyMission 19814.71591568
scalar OsgEarthNet.uav[34] utilizationEnergyMaintenance 11899.96112442
scalar OsgEarthNet.uav[34] utilizationEnergyCharge 32409.27734375
scalar OsgEarthNet.uav[34] utilizationEnergyOverdrawMission 0
scalar OsgEarthNet.uav[34] utilizationEnergyOverdrawMaintenance 0
scalar OsgEarthNet.uav[34] utilizationCountMissions 7
scalar OsgEarthNet.uav[34] utilizationCountManeuversMission 116
scalar OsgEarthNet.uav[34] utilizationCountManeuversMaintenance 14
scalar OsgEarthNet.uav[34] utilizationCountChargeState 7
scalar OsgEarthNet.uav[34] utilizationCountOverdrawnAfterMission 0
scalar OsgEarthNet.uav[34] utilizationCountIdleState 8
scalar OsgEarthNet.uav[34] utilizationFail 0
scalar OsgEarthNet.uav[34] simulationTime 259200
scalar OsgEarthNet.uav[35] utilizationSecMission 26260.23316432
scalar OsgEarthNet.uav[35] utilizationSecMaintenance 23390.340488389
scalar OsgEarthNet.uav[35] utilizationSecCharge 178400
scalar OsgEarthNet.uav[35] utilizationSecIdle 31149.42534729
scalar OsgEarthNet.uav[35] utilizationEnergyMission 126579.73186874
scalar OsgEarthNet.uav[35] utilizationEnergyMaintenance 108517.92126631
scalar OsgEarthNet.uav[35] utilizationEnergyCharge 232799.01733398
scalar OsgEarthNet.uav[35] utilizationEnergyOverdrawMission 0
scalar OsgEarthNet.uav[35] utilizationEnergyOverdrawMaintenance 0
scalar OsgEarthNet.uav[35] utilizationCountMissions 54
scalar OsgEarthNet.uav[35] utilizationCountManeuversMission 825
scalar OsgEarthNet.uav[35] utilizationCountManeuversMaintenance 108
scalar OsgEarthNet.uav[35] utilizationCountChargeState 53
scalar OsgEarthNet.uav[35] utilizationCountOverdrawnAfterMission 0
scalar OsgEarthNet.uav[35] utilizationCountIdleState 54
scalar OsgEarthNet.uav[35] utilizationFail 0
scalar OsgEarthNet.uav[35] simulationTime 259200
scalar OsgEarthNet.uav[36] utilizationSecMission 313.66140879233
scalar OsgEarthNet.uav[36] utilizationSecMaintenance 473.03391658586
scalar OsgEarthNet.uav[36] utilizationSecCharge 2980
scalar OsgEarthNet.uav[36] utilizationSecIdle 255433.30367462
scalar OsgEarthNet.uav[36] utilizationEnergyMission 1490.2064056396
scalar OsgEarthNet.uav[36] utilizationEnergyMaintenance 2219.8520736694
scalar OsgEarthNet.uav[36] utilizationEnergyCharge 3710.0541992188
scalar OsgEarthNet.uav[36] utilizationEnergyOverdrawMission 0
scalar OsgEarthNet.uav[36] utilizationEnergyOverdrawMaintenance 0
scalar OsgEarthNet.uav[36] utilizationCountMissions 1
scalar OsgEarthNet.uav[36] utilizationCountManeuversMission 5
scalar OsgEarthNet.uav[36] utilizationCountManeuversMaintenance 2
scalar OsgEarthNet.uav[36] utilizationCountChargeState 1
scalar OsgEarthNet.uav[36] utilizationCountOverdrawnAfterMission 0
scalar OsgEarthNet.uav[36] utilizationCountIdleState 2
scalar OsgEarthNet.uav[36] utilizationFail 0
scalar OsgEarthNet.uav[36] simulationTime 259200
scalar OsgEarthNet.uav[37] utilizationSecMission 900
scalar OsgEarthNet.uav[37] utilizationSecMaintenance 770.12301949034
scalar OsgEarthNet.uav[37] utilizationSecCharge 6340
scalar OsgEarthNet.uav[37] utilizationSecIdle 251189.87598051
scalar OsgEarthNet.uav[37] utilizationEnergyMission 4821.2482528687
scalar OsgEarthNet.uav[37] utilizationEnergyMaintenance 3505.6259994507
scalar OsgEarthNet.uav[37] utilizationEnergyCharge 8094.70703125
scalar OsgEarthNet.uav[37] utilizationEnergyOverdrawMission 0
scalar OsgEarthNet.uav[37] utilizationEnergyOverdrawMaintenance 0
scalar OsgEarthNet.uav[37] utilizationCountMissions 2
scalar OsgEarthNet.uav[37] utilizationCountManeuversMission 45
scalar OsgEarthNet.uav[37] utilizationCountManeuversMaintenance 4
scalar OsgEarthNet.uav[37] utilizationCountChargeState 2
scalar OsgEarthNet.uav[37] utilizationCountOverdrawnAfterMission 0
scalar OsgEarthNet.uav[37] utilizationCountIdleState 3
scalar OsgEarthNet.uav[37] utilizationFail 0
scalar OsgEarthNet.uav[37] simulationTime 259200
scalar OsgEarthNet.uav[38] utilizationSecMission 25473.532905826
scalar OsgEarthNet.uav[38] utilizationSecMaintenance 26101.439023408
scalar OsgEarthNet.uav[38] utilizationSecCharge 183493.02707077
scalar OsgEarthNet.uav[38] utilizationSecIdle 24132
scalar OsgEarthNet.uav[38] utilizationEnergyMission 124416.29694308
scalar OsgEarthNet.uav[38] utilizationEnergyMaintenance 120773.90790176
scalar OsgEarthNet.uav[38] utilizationEnergyCharge 239901.75817871
scalar OsgEarthNet.uav[38] utilizationEnergyOverdrawMission 0
scalar OsgEarthNet.uav[38] utilizationEnergyOverdrawMaintenance 0
scalar OsgEarthNet.uav[38] utilizationCountMissions 55
scalar OsgEarthNet.uav[38] utilizationCountManeuversMission 829
scalar OsgEarthNet.uav[38] utilizationCountManeuversMaintenance 109
scalar OsgEarthNet.uav[38] utilizationCountChargeState 55
scalar OsgEarthNet.uav[38] utilizationCountOverdrawnAfterMission 0
scalar OsgEarthNet.uav[38] utilizationCountIdleState 55
scalar OsgEarthNet.uav[38] utilizationFail 0
scalar OsgEarthNet.uav[38] simulationTime 259200
scalar OsgEarthNet.uav[39] utilizationSecMission 16619.5846045
scalar OsgEarthNet.uav[39] utilizationSecMaintenance 17092.355516039
scalar OsgEarthNet.uav[39] utilizationSecCharge 121490
scalar OsgEarthNet.uav[39] utilizationSecIdle 103998.05887946
scalar OsgEarthNet.uav[39] utilizationEnergyMission 80665.191266162
scalar OsgEarthNet.uav[39] utilizationEnergyMaintenance 80382.895298004
scalar OsgEarthNet.uav[39] utilizationEnergyCharge 158919.2421875
scalar OsgEarthNet.uav[39] utilizationEnergyOverdrawMission 0
scalar OsgEarthNet.uav[39] utilizationEnergyOverdrawMaintenance 363.94732666016
scalar OsgEarthNet.uav[39] utilizationCountMissions 36
scalar OsgEarthNet.uav[39] utilizationCountManeuversMission 596
scalar OsgEarthNet.uav[39] utilizationCountManeuversMaintenance 73
scalar OsgEarthNet.uav[39] utilizationCountChargeState 36
scalar OsgEarthNet.uav[39] utilizationCountOverdrawnAfterMission 1
scalar OsgEarthNet.uav[39] utilizationCountIdleState 37
scalar OsgEarthNet.uav[39] utilizationFail 0
scalar OsgEarthNet.uav[39] simulationTime 259200
scalar OsgEarthNet.uav[40] utilizationSecMission 19189.489451513
scalar OsgEarthNet.uav[40] utilizationSecMaintenance 19291.152673444
scalar OsgEarthNet.uav[40] utilizationSecCharge 138667.34387504
scalar OsgEarthNet.uav[40] utilizationSecIdle 82052.013
scalar OsgEarthNet.uav[40] utilizationEnergyMission 93570.403423309
scalar OsgEarthNet.uav[40] utilizationEnergyMaintenance 88346.889938354
scalar OsgEarthNet.uav[40] utilizationEnergyCharge 181836.51367188
scalar OsgEarthNet.uav[40] utilizationEnergyOverdrawMission 0
scalar OsgEarthNet.uav[40] utilizationEnergyOverdrawMaintenance 11.29269695282
scalar OsgEarthNet.uav[40] utilizationCountMissions 41
scalar OsgEarthNet.uav[40] utilizationCountManeuversMission 699
scalar OsgEarthNet.uav[40] utilizationCountManeuversMaintenance 82
scalar OsgEarthNet.uav[40] utilizationCountChargeState 41
scalar OsgEarthNet.uav[40] utilizationCountOverdrawnAfterMission 1
scalar OsgEarthNet.uav[40] utilizationCountIdleState 41
scalar OsgEarthNet.uav[40] utilizationFail 0
scalar OsgEarthNet.uav[40] simulationTime 259200
scalar OsgEarthNet.uav[41] utilizationSecMission 25744.675589325
scalar OsgEarthNet.uav[41] utilizationSecMaintenance 24233.320410675
scalar OsgEarthNet.uav[41] utilizationSecCharge 179290
scalar OsgEarthNet.uav[41] utilizationSecIdle 29932.003
scalar OsgEarthNet.uav[41] utilizationEnergyMission 125778.94171163
scalar OsgEarthNet.uav[41] utilizationEnergyMaintenance 111047.18907928
scalar OsgEarthNet.uav[41] utilizationEnergyCharge 234258.27270508
scalar OsgEarthNet.uav[41] utilizationEnergyOverdrawMission 0
scalar OsgEarthNet.uav[41] utilizationEnergyOverdrawMaintenance 0
scalar OsgEarthNet.uav[41] utilizationCountMissions 53
scalar OsgEarthNet.uav[41] utilizationCountManeuversMission 859
scalar OsgEarthNet.uav[41] utilizationCountManeuversMaintenance 107
scalar OsgEarthNet.uav[41] utilizationCountChargeState 53
scalar OsgEarthNet.uav[41] utilizationCountOverdrawnAfterMission 0
scalar OsgEarthNet.uav[41] utilizationCountIdleState 54
scalar OsgEarthNet.uav[41] utilizationFail 0
scalar OsgEarthNet.uav[41] simulationTime 259200
scalar OsgEarthNet.uav[42] utilizationSecMission 26024.078312682
scalar OsgEarthNet.uav[42] utilizationSecMaintenance 19896.289606653
scalar OsgEarthNet.uav[42] utilizationSecCharge 163150
scalar OsgEarthNet.uav[42] utilizationSecIdle 50129.631080665
scalar OsgEarthNet.uav[42] utilizationEnergyMission 123774.60533771
scalar OsgEarthNet.uav[42] utilizationEnergyMaintenance 92571.263690948
scalar OsgEarthNet.uav[42] utilizationEnergyCharge 213581.859375
scalar OsgEarthNet.uav[42] utilizationEnergyOverdrawMission 0
scalar OsgEarthNet.uav[42] utilizationEnergyOverdrawMaintenance 0
scalar OsgEarthNet.uav[42] utilizationCountMissions 48
scalar OsgEarthNet.uav[42] utilizationCountManeuversMission 714
scalar OsgEarthNet.uav[42] utilizationCountManeuversMaintenance 97
scalar OsgEarthNet.uav[42] utilizationCountChargeState 48
scalar OsgEarthNet.uav[42] utilizationCountOverdrawnAfterMission 0
scalar OsgEarthNet.uav[42] utilizationCountIdleState 49
scalar OsgEarthNet.uav[42] utilizationFail 0
scalar OsgEarthNet.uav[42] simulationTime 259200
scalar OsgEarthNet.uav[43] utilizationSecMission 25820.656200488
scalar OsgEarthNet.uav[43] utilizationSecMaintenance 24893.144391338
scalar OsgEarthNet.uav[43] utilizationSecCharge 183574.19840817
scalar OsgEarthNet.uav[43] utilizationSecIdle 24912
scalar OsgEarthNet.uav[43] utilizationEnergyMission 122398.68034744
scalar OsgEarthNet.uav[43] utilizationEnergyMaintenance 116717.40016937
scalar OsgEarthNet.uav[43] utilizationEnergyCharge 241428.29394531
scalar OsgEarthNet.uav[43] utilizationEnergyOverdrawMission 0
scalar OsgEarthNet.uav[43] utilizationEnergyOverdrawMaintenance 0
scalar OsgEarthNet.uav[43] utilizationCountMissions 54
scalar OsgEarthNet.uav[43] utilizationCountManeuversMission 817
scalar OsgEarthNet.uav[43] utilizationCountManeuversMaintenance 107
scalar OsgEarthNet.uav[43] utilizationCountChargeState 54
scalar OsgEarthNet.uav[43] utilizationCountOverdrawnAfterMission 0
scalar OsgEarthNet.uav[43] utilizationCountIdleState 54
scalar OsgEarthNet.uav[43] utilizationFail 0
scalar OsgEarthNet.uav[43] simulationTime 259200
scalar OsgEarthNet.uav[44] utilizationSecMission 20470.016196671
scalar OsgEarthNet.uav[44] utilizationSecMaintenance 21249.494547713
scalar OsgEarthNet.uav[44] utilizationSecCharge 151098.47925562
scalar OsgEarthNet.uav[44] utilizationSecIdle 66382.009
scalar OsgEarthNet.uav[44] utilizationEnergyMission 100999.3578186
scalar OsgEarthNet.uav[44] utilizationEnergyMaintenance 99985.183265686
scalar OsgEarthNet.uav[44] utilizationEnergyCharge 198798.42456055
scalar OsgEarthNet.uav[44] utilizationEnergyOverdrawMission 0
scalar OsgEarthNet.uav[44] utilizationEnergyOverdrawMaintenance 0
scalar OsgEarthNet.uav[44] utilizationCountMissions 45
scalar OsgEarthNet.uav[44] utilizationCountManeuversMission 629
scalar OsgEarthNet.uav[44] utilizationCountManeuversMaintenance 90
scalar OsgEarthNet.uav[44] utilizationCountChargeState 45
scalar OsgEarthNet.uav[44] utilizationCountOverdrawnAfterMission 0
scalar OsgEarthNet.uav[44] utilizationCountIdleState 45
scalar OsgEarthNet.uav[44] utilizationFail 0
scalar OsgEarthNet.uav[44] simulationTime 259200
scalar OsgEarthNet.uav[45] utilizationSecMission 9805.6264755427
scalar OsgEarthNet.uav[45] utilizationSecMaintenance 7740.2273907179
scalar OsgEarthNet.uav[45] utilizationSecCharge 64000
scalar OsgEarthNet.uav[45] utilizationSecIdle 177654.14513374
scalar OsgEarthNet.uav[45] utilizationEnergyMission 47860.755344391
scalar OsgEarthNet.uav[45] utilizationEnergyMaintenance 35928.985660553
scalar OsgEarthNet.uav[45] utilizationEnergyCharge 83479.339599609
scalar OsgEarthNet.uav[45] utilizationEnergyOverdrawMission 0
scalar OsgEarthNet.uav[45] utilizationEnergyOverdrawMaintenance 0
scalar OsgEarthNet.uav[45] utilizationCountMissions 19
scalar OsgEarthNet.uav[45] utilizationCountManeuversMission 338
scalar OsgEarthNet.uav[45] utilizationCountManeuversMaintenance 38
scalar OsgEarthNet.uav[45] utilizationCountChargeState 19
scalar OsgEarthNet.uav[45] utilizationCountOverdrawnAfterMission 0
scalar OsgEarthNet.uav[45] utilizationCountIdleState 20
scalar OsgEarthNet.uav[45] utilizationFail 0
scalar OsgEarthNet.uav[45] simulationTime 259200
scalar OsgEarthNet.uav[46] utilizationSecMission 25572.944989586
scalar OsgEarthNet.uav[46] utilizationSecMaintenance 25202.105692217
scalar OsgEarthNet.uav[46] utilizationSecCharge 184492.9473182
scalar OsgEarthNet.uav[46] utilizationSecIdle 23932.001
scalar OsgEarthNet.uav[46] utilizationEnergyMission 127264.30374146
scalar OsgEarthNet.uav[46] utilizationEnergyMaintenance 118291.07609558
scalar OsgEarthNet.uav[46] utilizationEnergyCharge 241782.38549805
scalar OsgEarthNet.uav[46] utilizationEnergyOverdrawMission 0
scalar OsgEarthNet.uav[46] utilizationEnergyOverdrawMaintenance 0
scalar OsgEarthNet.uav[46] utilizationCountMissions 55
scalar OsgEarthNet.uav[46] utilizationCountManeuversMission 811
scalar OsgEarthNet.uav[46] utilizationCountManeuversMaintenance 110
scalar OsgEarthNet.uav[46] utilizationCountChargeState 55
scalar OsgEarthNet.uav[46] utilizationCountOverdrawnAfterMission 0
scalar OsgEarthNet.uav[46] utilizationCountIdleState 55
scalar OsgEarthNet.uav[46] utilizationFail 0
scalar OsgEarthNet.uav[46] simulationTime 259200
scalar OsgEarthNet.uav[47] utilizationSecMission 26973.770379266
scalar OsgEarthNet.uav[47] utilizationSecMaintenance 22621.638439497
scalar OsgEarthNet.uav[47] utilizationSecCharge 175398.68307678
scalar OsgEarthNet.uav[47] utilizationSecIdle 34205.907104458
scalar OsgEarthNet.uav[47] utilizationEnergyMission 128171.25043869
scalar OsgEarthNet.uav[47] utilizationEnergyMaintenance 104961.84929657
scalar OsgEarthNet.uav[47] utilizationEnergyCharge 232651.78540039
scalar OsgEarthNet.uav[47] utilizationEnergyOverdrawMission 0
scalar OsgEarthNet.uav[47] utilizationEnergyOverdrawMaintenance 115.41514587402
scalar OsgEarthNet.uav[47] utilizationCountMissions 51
scalar OsgEarthNet.uav[47] utilizationCountManeuversMission 700
scalar OsgEarthNet.uav[47] utilizationCountManeuversMaintenance 102
scalar OsgEarthNet.uav[47] utilizationCountChargeState 51
scalar OsgEarthNet.uav[47] utilizationCountOverdrawnAfterMission 1
scalar OsgEarthNet.uav[47] utilizationCountIdleState 51
scalar OsgEarthNet.uav[47] utilizationFail 0
scalar OsgEarthNet.uav[47] simulationTime 259200
scalar OsgEarthNet.uav[48] utilizationSecMission 14785.005416991
scalar OsgEarthNet.uav[48] utilizationSecMaintenance 13839.628548808
scalar OsgEarthNet.uav[48] utilizationSecCharge 104260
scalar OsgEarthNet.uav[48] utilizationSecIdle 126315.3650342
scalar OsgEarthNet.uav[48] utilizationEnergyMission 71715.261482239
scalar OsgEarthNet.uav[48] utilizationEnergyMaintenance 62961.234699249
scalar OsgEarthNet.uav[48] utilizationEnergyCharge 136075.02978516
scalar OsgEarthNet.uav[48] utilizationEnergyOverdrawMission 0
scalar OsgEarthNet.uav[48] utilizationEnergyOverdrawMaintenance 0
scalar OsgEarthNet.uav[48] utilizationCountMissions 31
scalar OsgEarthNet.uav[48] utilizationCountManeuversMission 501
scalar OsgEarthNet.uav[48] utilizationCountManeuversMaintenance 62
scalar OsgEarthNet.uav[48] utilizationCountChargeState 31
scalar OsgEarthNet.uav[48] utilizationCountOverdrawnAfterMission 0
scalar OsgEarthNet.uav[48] utilizationCountIdleState 32
scalar OsgEarthNet.uav[48] utilizationFail 0
scalar OsgEarthNet.uav[48] simulationTime 259200
scalar OsgEarthNet.uav[49] utilizationSecMission 15774.4540667
scalar OsgEarthNet.uav[49] utilizationSecMaintenance 14849.382536347
scalar OsgEarthNet.uav[49] utilizationSecCharge 111500
scalar OsgEarthNet.uav[49] utilizationSecIdle 117076.16239695
scalar OsgEarthNet.uav[49] utilizationEnergyMission 77154.410217285
scalar OsgEarthNet.uav[49] utilizationEnergyMaintenance 68617.259174347
scalar OsgEarthNet.uav[49] utilizationEnergyCharge 146114.22021484
scalar OsgEarthNet.uav[49] utilizationEnergyOverdrawMission 0
scalar OsgEarthNet.uav[49] utilizationEnergyOverdrawMaintenance 0
scalar OsgEarthNet.uav[49] utilizationCountMissions 33
scalar OsgEarthNet.uav[49] utilizationCountManeuversMission 540
scalar OsgEarthNet.uav[49] utilizationCountManeuversMaintenance 66
scalar OsgEarthNet.uav[49] utilizationCountChargeState 33
scalar OsgEarthNet.uav[49] utilizationCountOverdrawnAfterMission 0
scalar OsgEarthNet.uav[49] utilizationCountIdleState 33
scalar OsgEarthNet.uav[49] utilizationFail 0
scalar OsgEarthNet.uav[49] simulationTime 259200
scalar OsgEarthNet.uav[50] utilizationSecMission 18516.673974202
scalar OsgEarthNet.uav[50] utilizationSecMaintenance 18199.265543038
scalar OsgEarthNet.uav[50] utilizationSecCharge 132110
scalar OsgEarthNet.uav[50] utilizationSecIdle 90374.05948276
scalar OsgEarthNet.uav[50] utilizationEnergyMission 89137.645339966
scalar OsgEarthNet.uav[50] utilizationEnergyMaintenance 84670.687374719
scalar OsgEarthNet.uav[50] utilizationEnergyCharge 173113.43139648
scalar OsgEarthNet.uav[50] utilizationEnergyOverdrawMission 0
scalar OsgEarthNet.uav[50] utilizationEnergyOverdrawMaintenance 619.13206481934
scalar OsgEarthNet.uav[50] utilizationCountMissions 39
scalar OsgEarthNet.uav[50] utilizationCountManeuversMission 557
scalar OsgEarthNet.uav[50] utilizationCountManeuversMaintenance 79
scalar OsgEarthNet.uav[50] utilizationCountChargeState 39
scalar OsgEarthNet.uav[50] utilizationCountOverdrawnAfterMission 2
scalar OsgEarthNet.uav[50] utilizationCountIdleState 40
scalar OsgEarthNet.uav[50] utilizationFail 0
scalar OsgEarthNet.uav[50] simulationTime 259200
scalar OsgEarthNet.uav[51] utilizationSecMission 29461.963387644
scalar OsgEarthNet.uav[51] utilizationSecMaintenance 21891.608496354
scalar OsgEarthNet.uav[51] utilizationSecCharge 183394.427116
scalar OsgEarthNet.uav[51] utilizationSecIdle 24452
scalar OsgEarthNet.uav[51] utilizationEnergyMission 141676.90494919
scalar OsgEarthNet.uav[51] utilizationEnergyMaintenance 103633.1199646
scalar OsgEarthNet.uav[51] utilizationEnergyCharge 242609.88720703
scalar OsgEarthNet.uav[51] utilizationEnergyOverdrawMission 0
scalar OsgEarthNet.uav[51] utilizationEnergyOverdrawMaintenance 0
scalar OsgEarthNet.uav[51] utilizationCountMissions 54
scalar OsgEarthNet.uav[51] utilizationCountManeuversMission 871
scalar OsgEarthNet.uav[51] utilizationCountManeuversMaintenance 108
scalar OsgEarthNet.uav[51] utilizationCountChargeState 54
scalar OsgEarthNet.uav[51] utilizationCountOverdrawnAfterMission 0
scalar OsgEarthNet.uav[51] utilizationCountIdleState 53
scalar OsgEarthNet.uav[51] utilizationFail 0
scalar OsgEarthNet.uav[51] simulationTime 259200
scalar OsgEarthNet.uav[52] utilizationSecMission 24411.086965866
scalar OsgEarthNet.uav[52] utilizationSecMaintenance 22485.955534507
scalar OsgEarthNet.uav[52] utilizationSecCharge 166324.38290703
scalar OsgEarthNet.uav[52] utilizationSecIdle 45978.573592593
scalar OsgEarthNet.uav[52] utilizationEnergyMission 117241.70271683
scalar OsgEarthNet.uav[52] utilizationEnergyMaintenance 104365.83456039
scalar OsgEarthNet.uav[52] utilizationEnergyCharge 220523.46679688
scalar OsgEarthNet.uav[52] utilizationEnergyOverdrawMission 0
scalar OsgEarthNet.uav[52] utilizationEnergyOverdrawMaintenance 0
scalar OsgEarthNet.uav[52] utilizationCountMissions 49
scalar OsgEarthNet.uav[52] utilizationCountManeuversMission 715
scalar OsgEarthNet.uav[52] utilizationCountManeuversMaintenance 98
scalar OsgEarthNet.uav[52] utilizationCountChargeState 49
scalar OsgEarthNet.uav[52] utilizationCountOverdrawnAfterMission 0
scalar OsgEarthNet.uav[52] utilizationCountIdleState 47
scalar OsgEarthNet.uav[52] utilizationFail 0
scalar OsgEarthNet.uav[52] simulationTime 259200
scalar OsgEarthNet.uav[53] utilizationSecMission 24428.468929148
scalar OsgEarthNet.uav[53] utilizationSecMaintenance 21792.575682191
scalar OsgEarthNet.uav[53] utilizationSecCharge 164730
scalar OsgEarthNet.uav[53] utilizationSecIdle 48248.95438866
scalar OsgEarthNet.uav[53] utilizationEnergyMission 116377.49347305
scalar OsgEarthNet.uav[53] utilizationEnergyMaintenance 101050.01011276
scalar OsgEarthNet.uav[53] utilizationEnergyCharge 217583.28442383
scalar OsgEarthNet.uav[53] utilizationEnergyOverdrawMission 0
scalar OsgEarthNet.uav[53] utilizationEnergyOverdrawMaintenance 0
scalar OsgEarthNet.uav[53] utilizationCountMissions 48
scalar OsgEarthNet.uav[53] utilizationCountManeuversMission 559
scalar OsgEarthNet.uav[53] utilizationCountManeuversMaintenance 96
scalar OsgEarthNet.uav[53] utilizationCountChargeState 48
scalar OsgEarthNet.uav[53] utilizationCountOverdrawnAfterMission 0
scalar OsgEarthNet.uav[53] utilizationCountIdleState 46
scalar OsgEarthNet.uav[53] utilizationFail 0
scalar OsgEarthNet.uav[53] simulationTime 259200
scalar OsgEarthNet.uav[54] utilizationSecMission 24724.611001673
scalar OsgEarthNet.uav[54] utilizationSecMaintenance 23880.898789798
scalar OsgEarthNet.uav[54] utilizationSecCharge 177090
scalar OsgEarthNet.uav[54] utilizationSecIdle 33504.489208528
scalar OsgEarthNet.uav[54] utilizationEnergyMission 119192.0583992
scalar OsgEarthNet.uav[54] utilizationEnergyMaintenance 112253.48888397
scalar OsgEarthNet.uav[54] utilizationEnergyCharge 232177.55810547
scalar OsgEarthNet.uav[54] utilizationEnergyOverdrawMission 0
scalar OsgEarthNet.uav[54] utilizationEnergyOverdrawMaintenance 0
scalar OsgEarthNet.uav[54] utilizationCountMissions 53
scalar OsgEarthNet.uav[54] utilizationCountManeuversMission 839
scalar OsgEarthNet.uav[54] utilizationCountManeuversMaintenance 105
scalar OsgEarthNet.uav[54] utilizationCountChargeState 53
scalar OsgEarthNet.uav[54] utilizationCountOverdrawnAfterMission 0
scalar OsgEarthNet.uav[54] utilizationCountIdleState 49
scalar OsgEarthNet.uav[54] utilizationFail 0
scalar OsgEarthNet.uav[54] simulationTime 259200
scalar OsgEarthNet.uav[55] utilizationSecMission 26818.367324241
scalar OsgEarthNet.uav[55] utilizationSecMaintenance 23296.465307512
scalar OsgEarthNet.uav[55] utilizationSecCharge 181263.49331886
scalar OsgEarthNet.uav[55] utilizationSecIdle 27821.673049383
scalar OsgEarthNet.uav[55] utilizationEnergyMission 129026.3119545
scalar OsgEarthNet.uav[55] utilizationEnergyMaintenance 109753.71554184
scalar OsgEarthNet.uav[55] utilizationEnergyCharge 237646.15112305
scalar OsgEarthNet.uav[55] utilizationEnergyOverdrawMission 0
scalar OsgEarthNet.uav[55] utilizationEnergyOverdrawMaintenance 396.87692260742
scalar OsgEarthNet.uav[55] utilizationCountMissions 54
scalar OsgEarthNet.uav[55] utilizationCountManeuversMission 786
scalar OsgEarthNet.uav[55] utilizationCountManeuversMaintenance 108
scalar OsgEarthNet.uav[55] utilizationCountChargeState 54
scalar OsgEarthNet.uav[55] utilizationCountOverdrawnAfterMission 1
scalar OsgEarthNet.uav[55] utilizationCountIdleState 52
scalar OsgEarthNet.uav[55] utilizationFail 0
scalar OsgEarthNet.uav[55] simulationTime 259200
scalar OsgEarthNet.uav[56] utilizationSecMission 23590.717179889
scalar OsgEarthNet.uav[56] utilizationSecMaintenance 20429.421199821
scalar OsgEarthNet.uav[56] utilizationSecCharge 160340
scalar OsgEarthNet.uav[56] utilizationSecIdle 54839.860620291
scalar OsgEarthNet.uav[56] utilizationEnergyMission 115024.34429932
scalar OsgEarthNet.uav[56] utilizationEnergyMaintenance 95599.815704346
scalar OsgEarthNet.uav[56] utilizationEnergyCharge 210241.42236328
scalar OsgEarthNet.uav[56] utilizationEnergyOverdrawMission 0
scalar OsgEarthNet.uav[56] utilizationEnergyOverdrawMaintenance 0
scalar OsgEarthNet.uav[56] utilizationCountMissions 47
scalar OsgEarthNet.uav[56] utilizationCountManeuversMission 741
scalar OsgEarthNet.uav[56] utilizationCountManeuversMaintenance 93
scalar OsgEarthNet.uav[56] utilizationCountChargeState 47
scalar OsgEarthNet.uav[56] utilizationCountOverdrawnAfterMission 0
scalar OsgEarthNet.uav[56] utilizationCountIdleState 47
scalar OsgEarthNet.uav[56] utilizationFail 0
scalar OsgEarthNet.uav[56] simulationTime 259200
scalar OsgEarthNet.uav[57] utilizationSecMission 17504.823366702
scalar OsgEarthNet.uav[57] utilizationSecMaintenance 14116.615218579
scalar OsgEarthNet.uav[57] utilizationSecCharge 115470
scalar OsgEarthNet.uav[57] utilizationSecIdle 112108.56041472
scalar OsgEarthNet.uav[57] utilizationEnergyMission 85041.493526459
scalar OsgEarthNet.uav[57] utilizationEnergyMaintenance 65463.623039246
scalar OsgEarthNet.uav[57] utilizationEnergyCharge 151148.31030273
scalar OsgEarthNet.uav[57] utilizationEnergyOverdrawMission 0
scalar OsgEarthNet.uav[57] utilizationEnergyOverdrawMaintenance 0
scalar OsgEarthNet.uav[57] utilizationCountMissions 34
scalar OsgEarthNet.uav[57] utilizationCountManeuversMission 590
scalar OsgEarthNet.uav[57] utilizationCountManeuversMaintenance 68
scalar OsgEarthNet.uav[57] utilizationCountChargeState 34
scalar OsgEarthNet.uav[57] utilizationCountOverdrawnAfterMission 0
scalar OsgEarthNet.uav[57] utilizationCountIdleState 33
scalar OsgEarthNet.uav[57] utilizationFail 0
scalar OsgEarthNet.uav[57] simulationTime 259200
scalar OsgEarthNet.uav[58] utilizationSecMission 22910.224004094
scalar OsgEarthNet.uav[58] utilizationSecMaintenance 22664.319342503
scalar OsgEarthNet.uav[58] utilizationSecCharge 162700
scalar OsgEarthNet.uav[58] utilizationSecIdle 50925.455653403
scalar OsgEarthNet.uav[58] utilizationEnergyMission 111151.17498771
scalar OsgEarthNet.uav[58] utilizationEnergyMaintenance 105093.46106338
scalar OsgEarthNet.uav[58] utilizationEnergyCharge 213395.89990234
scalar OsgEarthNet.uav[58] utilizationEnergyOverdrawMission 0
scalar OsgEarthNet.uav[58] utilizationEnergyOverdrawMaintenance 0
scalar OsgEarthNet.uav[58] utilizationCountMissions 48
scalar OsgEarthNet.uav[58] utilizationCountManeuversMission 642
scalar OsgEarthNet.uav[58] utilizationCountManeuversMaintenance 97
scalar OsgEarthNet.uav[58] utilizationCountChargeState 48
scalar OsgEarthNet.uav[58] utilizationCountOverdrawnAfterMission 0
scalar OsgEarthNet.uav[58] utilizationCountIdleState 45
scalar OsgEarthNet.uav[58] utilizationFail 0
scalar OsgEarthNet.uav[58] simulationTime 259200
scalar OsgEarthNet.uav[59] utilizationSecMission 21463.511590153
scalar OsgEarthNet.uav[59] utilizationSecMaintenance 18792.578611981
scalar OsgEarthNet.uav[59] utilizationSecCharge 145162.46038228
scalar OsgEarthNet.uav[59] utilizationSecIdle 73781.448415583
scalar OsgEarthNet.uav[59] utilizationEnergyMission 103121.91688919
scalar OsgEarthNet.uav[59] utilizationEnergyMaintenance 87300.553432465
scalar OsgEarthNet.uav[59] utilizationEnergyCharge 190853.84838867
scalar OsgEarthNet.uav[59] utilizationEnergyOverdrawMission 0
scalar OsgEarthNet.uav[59] utilizationEnergyOverdrawMaintenance 0
scalar OsgEarthNet.uav[59] utilizationCountMissions 43
scalar OsgEarthNet.uav[59] utilizationCountManeuversMission 672
scalar OsgEarthNet.uav[59] utilizationCountManeuversMaintenance 86
scalar OsgEarthNet.uav[59] utilizationCountChargeState 43
scalar OsgEarthNet.uav[59] utilizationCountOverdrawnAfterMission 0
scalar OsgEarthNet.uav[59] utilizationCountIdleState 42
scalar OsgEarthNet.uav[59] utilizationFail 0
scalar OsgEarthNet.uav[59] simulationTime 259200
scalar OsgEarthNet.uav[60] utilizationSecMission 22574.801746666
scalar OsgEarthNet.uav[60] utilizationSecMaintenance 18344.764929704
scalar OsgEarthNet.uav[60] utilizationSecCharge 147748.42232363
scalar OsgEarthNet.uav[60] utilizationSecIdle 70532.01
scalar OsgEarthNet.uav[60] utilizationEnergyMission 107936.00592041
scalar OsgEarthNet.uav[60] utilizationEnergyMaintenance 85240.291385651
scalar OsgEarthNet.uav[60] utilizationEnergyCharge 193446.66040039
scalar OsgEarthNet.uav[60] utilizationEnergyOverdrawMission 0
scalar OsgEarthNet.uav[60] utilizationEnergyOverdrawMaintenance 0
scalar OsgEarthNet.uav[60] utilizationCountMissions 44
scalar OsgEarthNet.uav[60] utilizationCountManeuversMission 731
scalar OsgEarthNet.uav[60] utilizationCountManeuversMaintenance 88
scalar OsgEarthNet.uav[60] utilizationCountChargeState 44
scalar OsgEarthNet.uav[60] utilizationCountOverdrawnAfterMission 0
scalar OsgEarthNet.uav[60] utilizationCountIdleState 41
scalar OsgEarthNet.uav[60] utilizationFail 0
scalar OsgEarthNet.uav[60] simulationTime 259200
scalar OsgEarthNet.uav[61] utilizationSecMission 20488.572342297
scalar OsgEarthNet.uav[61] utilizationSecMaintenance 20965.980569012
scalar OsgEarthNet.uav[61] utilizationSecCharge 148340
scalar OsgEarthNet.uav[61] utilizationSecIdle 69405.446088691
scalar OsgEarthNet.uav[61] utilizationEnergyMission 100280.50588226
scalar OsgEarthNet.uav[61] utilizationEnergyMaintenance 97184.678848309
scalar OsgEarthNet.uav[61] utilizationEnergyCharge 194272.09692383
scalar OsgEarthNet.uav[61] utilizationEnergyOverdrawMission 0
scalar OsgEarthNet.uav[61] utilizationEnergyOverdrawMaintenance 0
scalar OsgEarthNet.uav[61] utilizationCountMissions 45
scalar OsgEarthNet.uav[61] utilizationCountManeuversMission 709
scalar OsgEarthNet.uav[61] utilizationCountManeuversMaintenance 90
scalar OsgEarthNet.uav[61] utilizationCountChargeState 44
scalar OsgEarthNet.uav[61] utilizationCountOverdrawnAfterMission 0
scalar OsgEarthNet.uav[61] utilizationCountIdleState 41
scalar OsgEarthNet.uav[61] utilizationFail 0
scalar OsgEarthNet.uav[61] simulationTime 259200
scalar OsgEarthNet.uav[62] utilizationSecMission 21784.217039205
scalar OsgEarthNet.uav[62] utilizationSecMaintenance 22020.891965095
scalar OsgEarthNet.uav[62] utilizationSecCharge 156042.8849957
scalar OsgEarthNet.uav[62] utilizationSecIdle 59352.005
scalar OsgEarthNet.uav[62] utilizationEnergyMission 107544.86820602
scalar OsgEarthNet.uav[62] utilizationEnergyMaintenance 103070.90396881
scalar OsgEarthNet.uav[62] utilizationEnergyCharge 205632.3939209
scalar OsgEarthNet.uav[62] utilizationEnergyOverdrawMission 0
scalar OsgEarthNet.uav[62] utilizationEnergyOverdrawMaintenance 0
scalar OsgEarthNet.uav[62] utilizationCountMissions 47
scalar OsgEarthNet.uav[62] utilizationCountManeuversMission 728
scalar OsgEarthNet.uav[62] utilizationCountManeuversMaintenance 94
scalar OsgEarthNet.uav[62] utilizationCountChargeState 47
scalar OsgEarthNet.uav[62] utilizationCountOverdrawnAfterMission 0
scalar OsgEarthNet.uav[62] utilizationCountIdleState 42
scalar OsgEarthNet.uav[62] utilizationFail 0
scalar OsgEarthNet.uav[62] simulationTime 259200
scalar OsgEarthNet.uav[63] utilizationSecMission 24822.795381397
scalar OsgEarthNet.uav[63] utilizationSecMaintenance 22496.825350618
scalar OsgEarthNet.uav[63] utilizationSecCharge 167328.37026799
scalar OsgEarthNet.uav[63] utilizationSecIdle 44552.008
scalar OsgEarthNet.uav[63] utilizationEnergyMission 118362.42130661
scalar OsgEarthNet.uav[63] utilizationEnergyMaintenance 103794.66913986
scalar OsgEarthNet.uav[63] utilizationEnergyCharge 222024.41052246
scalar OsgEarthNet.uav[63] utilizationEnergyOverdrawMission 0
scalar OsgEarthNet.uav[63] utilizationEnergyOverdrawMaintenance 242.59382629395
scalar OsgEarthNet.uav[63] utilizationCountMissions 50
scalar OsgEarthNet.uav[63] utilizationCountManeuversMission 772
scalar OsgEarthNet.uav[63] utilizationCountManeuversMaintenance 100
scalar OsgEarthNet.uav[63] utilizationCountChargeState 50
scalar OsgEarthNet.uav[63] utilizationCountOverdrawnAfterMission 1
scalar OsgEarthNet.uav[63] utilizationCountIdleState 43
scalar OsgEarthNet.uav[63] utilizationFail 0
scalar OsgEarthNet.uav[63] simulationTime 259200
scalar OsgEarthNet.uav[64] utilizationSecMission 26527.107741899
scalar OsgEarthNet.uav[64] utilizationSecMaintenance 23479.001449319
scalar OsgEarthNet.uav[64] utilizationSecCharge 178547.20900089
scalar OsgEarthNet.uav[64] utilizationSecIdle 30646.680807888
scalar OsgEarthNet.uav[64] utilizationEnergyMission 128534.29805374
scalar OsgEarthNet.uav[64] utilizationEnergyMaintenance 108557.23824692
scalar OsgEarthNet.uav[64] utilizationEnergyCharge 235964.19116211
scalar OsgEarthNet.uav[64] utilizationEnergyOverdrawMission 0
scalar OsgEarthNet.uav[64] utilizationEnergyOverdrawMaintenance 0
scalar OsgEarthNet.uav[64] utilizationCountMissions 53
scalar OsgEarthNet.uav[64] utilizationCountManeuversMission 873
scalar OsgEarthNet.uav[64] utilizationCountManeuversMaintenance 106
scalar OsgEarthNet.uav[64] utilizationCountChargeState 53
scalar OsgEarthNet.uav[64] utilizationCountOverdrawnAfterMission 0
scalar OsgEarthNet.uav[64] utilizationCountIdleState 47
scalar OsgEarthNet.uav[64] utilizationFail 0
scalar OsgEarthNet.uav[64] simulationTime 259200
scalar OsgEarthNet.uav[65] utilizationSecMission 25189.346067862
scalar OsgEarthNet.uav[65] utilizationSecMaintenance 24078.093011424
scalar OsgEarthNet.uav[65] utilizationSecCharge 177760.55892071
scalar OsgEarthNet.uav[65] utilizationSecIdle 32172.001
scalar OsgEarthNet.uav[65] utilizationEnergyMission 122079.07095718
scalar OsgEarthNet.uav[65] utilizationEnergyMaintenance 112409.4008255
scalar OsgEarthNet.uav[65] utilizationEnergyCharge 235659.10644531
scalar OsgEarthNet.uav[65] utilizationEnergyOverdrawMission 0
scalar OsgEarthNet.uav[65] utilizationEnergyOverdrawMaintenance 0
[...]
scalar OsgEarthNet.uav[81] utilizationCountManeuversMission 886
scalar OsgEarthNet.uav[81] utilizationCountManeuversMaintenance 117
scalar OsgEarthNet.uav[81] utilizationCountChargeState 58
scalar OsgEarthNet.uav[81] utilizationCountOverdrawnAfterMission 0
scalar OsgEarthNet.uav[81] utilizationCountIdleState 30
scalar OsgEarthNet.uav[81] utilizationFail 0
scalar OsgEarthNet.uav[81] simulationTime 259200
scalar OsgEarthNet.uav[82] utilizationSecMission 28560.642904183
scalar OsgEarthNet.uav[82] utilizationSecMaintenance 27005.058074518
scalar OsgEarthNet.uav[82] utilizationSecCharge 194635.07840738
scalar OsgEarthNet.uav[82] utilizationSecIdle 8999.2196139157
scalar OsgEarthNet.uav[82] utilizationEnergyMission 136876.56839371
scalar OsgEarthNet.uav[82] utilizationEnergyMaintenance 126325.54391861
scalar OsgEarthNet.uav[82] utilizationEnergyCharge 262574.63354492
scalar OsgEarthNet.uav[82] utilizationEnergyOverdrawMission 0
scalar OsgEarthNet.uav[82] utilizationEnergyOverdrawMaintenance 406.13565063477
scalar OsgEarthNet.uav[82] utilizationCountMissions 59
scalar OsgEarthNet.uav[82] utilizationCountManeuversMission 837
scalar OsgEarthNet.uav[82] utilizationCountManeuversMaintenance 118
scalar OsgEarthNet.uav[82] utilizationCountChargeState 59
scalar OsgEarthNet.uav[82] utilizationCountOverdrawnAfterMission 1
scalar OsgEarthNet.uav[82] utilizationCountIdleState 32
scalar OsgEarthNet.uav[82] utilizationFail 0
scalar OsgEarthNet.uav[82] simulationTime 259200
scalar OsgEarthNet.uav[83] utilizationSecMission 26043.481333511
scalar OsgEarthNet.uav[83] utilizationSecMaintenance 28841.991230339
scalar OsgEarthNet.uav[83] utilizationSecCharge 194582.51543615
scalar OsgEarthNet.uav[83] utilizationSecIdle 9732.011
scalar OsgEarthNet.uav[83] utilizationEnergyMission 126549.95797729
scalar OsgEarthNet.uav[83] utilizationEnergyMaintenance 134412.98770523
scalar OsgEarthNet.uav[83] utilizationEnergyCharge 261182.28833008
scalar OsgEarthNet.uav[83] utilizationEnergyOverdrawMission 0
scalar OsgEarthNet.uav[83] utilizationEnergyOverdrawMaintenance 0
scalar OsgEarthNet.uav[83] utilizationCountMissions 59
scalar OsgEarthNet.uav[83] utilizationCountManeuversMission 859
scalar OsgEarthNet.uav[83] utilizationCountManeuversMaintenance 118
scalar OsgEarthNet.uav[83] utilizationCountChargeState 59
scalar OsgEarthNet.uav[83] utilizationCountOverdrawnAfterMission 0
scalar OsgEarthNet.uav[83] utilizationCountIdleState 28
scalar OsgEarthNet.uav[83] utilizationFail 0
scalar OsgEarthNet.uav[83] simulationTime 259200
scalar OsgEarthNet.uav[84] utilizationSecMission 26871.783600487
scalar OsgEarthNet.uav[84] utilizationSecMaintenance 28703.66709405
scalar OsgEarthNet.uav[84] utilizationSecCharge 195052.54430546
scalar OsgEarthNet.uav[84] utilizationSecIdle 8572.004
scalar OsgEarthNet.uav[84] utilizationEnergyMission 132916.00933838
scalar OsgEarthNet.uav[84] utilizationEnergyMaintenance 133672.91373444
scalar OsgEarthNet.uav[84] utilizationEnergyCharge 262466.1784668
scalar OsgEarthNet.uav[84] utilizationEnergyOverdrawMission 0
scalar OsgEarthNet.uav[84] utilizationEnergyOverdrawMaintenance 433.51470947266
scalar OsgEarthNet.uav[84] utilizationCountMissions 60
scalar OsgEarthNet.uav[84] utilizationCountManeuversMission 899
scalar OsgEarthNet.uav[84] utilizationCountManeuversMaintenance 120
scalar OsgEarthNet.uav[84] utilizationCountChargeState 60
scalar OsgEarthNet.uav[84] utilizationCountOverdrawnAfterMission 1
scalar OsgEarthNet.uav[84] utilizationCountIdleState 25
scalar OsgEarthNet.uav[84] utilizationFail 0
scalar OsgEarthNet.uav[84] simulationTime 259200
scalar OsgEarthNet.uav[85] utilizationSecMission 28200.118576097
scalar OsgEarthNet.uav[85] utilizationSecMaintenance 27501.4312002
scalar OsgEarthNet.uav[85] utilizationSecCharge 194796.4472237
scalar OsgEarthNet.uav[85] utilizationSecIdle 8702.002
scalar OsgEarthNet.uav[85] utilizationEnergyMission 140139.61736679
scalar OsgEarthNet.uav[85] utilizationEnergyMaintenance 126562.51277161
scalar OsgEarthNet.uav[85] utilizationEnergyCharge 262702.61474609
scalar OsgEarthNet.uav[85] utilizationEnergyOverdrawMission 0
scalar OsgEarthNet.uav[85] utilizationEnergyOverdrawMaintenance 0
scalar OsgEarthNet.uav[85] utilizationCountMissions 60
scalar OsgEarthNet.uav[85] utilizationCountManeuversMission 948
scalar OsgEarthNet.uav[85] utilizationCountManeuversMaintenance 120
scalar OsgEarthNet.uav[85] utilizationCountChargeState 60
scalar OsgEarthNet.uav[85] utilizationCountOverdrawnAfterMission 0
scalar OsgEarthNet.uav[85] utilizationCountIdleState 29
scalar OsgEarthNet.uav[85] utilizationFail 0
scalar OsgEarthNet.uav[85] simulationTime 259200
scalar OsgEarthNet.uav[86] utilizationSecMission 28071.161418336
scalar OsgEarthNet.uav[86] utilizationSecMaintenance 27216.818299423
scalar OsgEarthNet.uav[86] utilizationSecCharge 193906.74870812
scalar OsgEarthNet.uav[86] utilizationSecIdle 10005.270574118
scalar OsgEarthNet.uav[86] utilizationEnergyMission 134866.02788544
scalar OsgEarthNet.uav[86] utilizationEnergyMaintenance 126007.41447067
scalar OsgEarthNet.uav[86] utilizationEnergyCharge 261480.29101562
scalar OsgEarthNet.uav[86] utilizationEnergyOverdrawMission 0
scalar OsgEarthNet.uav[86] utilizationEnergyOverdrawMaintenance 0
scalar OsgEarthNet.uav[86] utilizationCountMissions 59
scalar OsgEarthNet.uav[86] utilizationCountManeuversMission 853
scalar OsgEarthNet.uav[86] utilizationCountManeuversMaintenance 118
scalar OsgEarthNet.uav[86] utilizationCountChargeState 59
scalar OsgEarthNet.uav[86] utilizationCountOverdrawnAfterMission 0
scalar OsgEarthNet.uav[86] utilizationCountIdleState 24
scalar OsgEarthNet.uav[86] utilizationFail 0
scalar OsgEarthNet.uav[86] simulationTime 259200
scalar OsgEarthNet.uav[87] utilizationSecMission 28787.575846574
scalar OsgEarthNet.uav[87] utilizationSecMaintenance 26382.036710995
scalar OsgEarthNet.uav[87] utilizationSecCharge 197418.38544243
scalar OsgEarthNet.uav[87] utilizationSecIdle 6612.001
scalar OsgEarthNet.uav[87] utilizationEnergyMission 143805.99997711
scalar OsgEarthNet.uav[87] utilizationEnergyMaintenance 124432.19928741
scalar OsgEarthNet.uav[87] utilizationEnergyCharge 264506.21850586
scalar OsgEarthNet.uav[87] utilizationEnergyOverdrawMission 0
scalar OsgEarthNet.uav[87] utilizationEnergyOverdrawMaintenance 0
scalar OsgEarthNet.uav[87] utilizationCountMissions 61
scalar OsgEarthNet.uav[87] utilizationCountManeuversMission 1063
scalar OsgEarthNet.uav[87] utilizationCountManeuversMaintenance 122
scalar OsgEarthNet.uav[87] utilizationCountChargeState 61
scalar OsgEarthNet.uav[87] utilizationCountOverdrawnAfterMission 0
scalar OsgEarthNet.uav[87] utilizationCountIdleState 24
scalar OsgEarthNet.uav[87] utilizationFail 0
scalar OsgEarthNet.uav[87] simulationTime 259200
scalar OsgEarthNet.uav[88] utilizationSecMission 28900.14582472
scalar OsgEarthNet.uav[88] utilizationSecMaintenance 26583.074721275
scalar OsgEarthNet.uav[88] utilizationSecCharge 194312.06770223
scalar OsgEarthNet.uav[88] utilizationSecIdle 9404.7107517761
scalar OsgEarthNet.uav[88] utilizationEnergyMission 140974.86547089
scalar OsgEarthNet.uav[88] utilizationEnergyMaintenance 123762.49174118
scalar OsgEarthNet.uav[88] utilizationEnergyCharge 261751.68212891
scalar OsgEarthNet.uav[88] utilizationEnergyOverdrawMission 0
scalar OsgEarthNet.uav[88] utilizationEnergyOverdrawMaintenance 0
scalar OsgEarthNet.uav[88] utilizationCountMissions 60
scalar OsgEarthNet.uav[88] utilizationCountManeuversMission 924
scalar OsgEarthNet.uav[88] utilizationCountManeuversMaintenance 120
scalar OsgEarthNet.uav[88] utilizationCountChargeState 60
scalar OsgEarthNet.uav[88] utilizationCountOverdrawnAfterMission 0
scalar OsgEarthNet.uav[88] utilizationCountIdleState 25
scalar OsgEarthNet.uav[88] utilizationFail 0
scalar OsgEarthNet.uav[88] simulationTime 259200
scalar OsgEarthNet.uav[89] utilizationSecMission 28431.73668219
scalar OsgEarthNet.uav[89] utilizationSecMaintenance 26961.064866925
scalar OsgEarthNet.uav[89] utilizationSecCharge 193544.79424804
scalar OsgEarthNet.uav[89] utilizationSecIdle 10262.403202842
scalar OsgEarthNet.uav[89] utilizationEnergyMission 137947.06254578
scalar OsgEarthNet.uav[89] utilizationEnergyMaintenance 125359.18663406
scalar OsgEarthNet.uav[89] utilizationEnergyCharge 262494.38378906
scalar OsgEarthNet.uav[89] utilizationEnergyOverdrawMission 0
scalar OsgEarthNet.uav[89] utilizationEnergyOverdrawMaintenance 0
scalar OsgEarthNet.uav[89] utilizationCountMissions 59
scalar OsgEarthNet.uav[89] utilizationCountManeuversMission 886
scalar OsgEarthNet.uav[89] utilizationCountManeuversMaintenance 118
scalar OsgEarthNet.uav[89] utilizationCountChargeState 59
scalar OsgEarthNet.uav[89] utilizationCountOverdrawnAfterMission 0
scalar OsgEarthNet.uav[89] utilizationCountIdleState 28
scalar OsgEarthNet.uav[89] utilizationFail 0
scalar OsgEarthNet.uav[89] simulationTime 259200
scalar OsgEarthNet.uav[90] utilizationSecMission 28340.409941045
scalar OsgEarthNet.uav[90] utilizationSecMaintenance 26759.447407521
scalar OsgEarthNet.uav[90] utilizationSecCharge 193999.30224713
scalar OsgEarthNet.uav[90] utilizationSecIdle 10100.839404301
scalar OsgEarthNet.uav[90] utilizationEnergyMission 136007.58903503
scalar OsgEarthNet.uav[90] utilizationEnergyMaintenance 125088.39497375
scalar OsgEarthNet.uav[90] utilizationEnergyCharge 260741.36523438
scalar OsgEarthNet.uav[90] utilizationEnergyOverdrawMission 0
scalar OsgEarthNet.uav[90] utilizationEnergyOverdrawMaintenance 0
scalar OsgEarthNet.uav[90] utilizationCountMissions 59
scalar OsgEarthNet.uav[90] utilizationCountManeuversMission 918
scalar OsgEarthNet.uav[90] utilizationCountManeuversMaintenance 118
scalar OsgEarthNet.uav[90] utilizationCountChargeState 59
scalar OsgEarthNet.uav[90] utilizationCountOverdrawnAfterMission 0
scalar OsgEarthNet.uav[90] utilizationCountIdleState 28
scalar OsgEarthNet.uav[90] utilizationFail 0
scalar OsgEarthNet.uav[90] simulationTime 259200
scalar OsgEarthNet.uav[91] utilizationSecMission 27977.390304635
scalar OsgEarthNet.uav[91] utilizationSecMaintenance 28021.31571627
scalar OsgEarthNet.uav[91] utilizationSecCharge 195159.29097909
scalar OsgEarthNet.uav[91] utilizationSecIdle 8042.002
scalar OsgEarthNet.uav[91] utilizationEnergyMission 136868.31149292
scalar OsgEarthNet.uav[91] utilizationEnergyMaintenance 130058.75137711
scalar OsgEarthNet.uav[91] utilizationEnergyCharge 263468.10375977
scalar OsgEarthNet.uav[91] utilizationEnergyOverdrawMission 0
scalar OsgEarthNet.uav[91] utilizationEnergyOverdrawMaintenance 0
scalar OsgEarthNet.uav[91] utilizationCountMissions 60
scalar OsgEarthNet.uav[91] utilizationCountManeuversMission 876
scalar OsgEarthNet.uav[91] utilizationCountManeuversMaintenance 120
scalar OsgEarthNet.uav[91] utilizationCountChargeState 60
scalar OsgEarthNet.uav[91] utilizationCountOverdrawnAfterMission 0
scalar OsgEarthNet.uav[91] utilizationCountIdleState 26
scalar OsgEarthNet.uav[91] utilizationFail 0
scalar OsgEarthNet.uav[91] simulationTime 259200
scalar OsgEarthNet.uav[92] utilizationSecMission 29055.159135616
scalar OsgEarthNet.uav[92] utilizationSecMaintenance 27611.554804831
scalar OsgEarthNet.uav[92] utilizationSecCharge 195261.28405955
scalar OsgEarthNet.uav[92] utilizationSecIdle 7272.001
scalar OsgEarthNet.uav[92] utilizationEnergyMission 139128.22394943
scalar OsgEarthNet.uav[92] utilizationEnergyMaintenance 127380.7244606
scalar OsgEarthNet.uav[92] utilizationEnergyCharge 263455.89538574
scalar OsgEarthNet.uav[92] utilizationEnergyOverdrawMission 0
scalar OsgEarthNet.uav[92] utilizationEnergyOverdrawMaintenance 0
scalar OsgEarthNet.uav[92] utilizationCountMissions 61
scalar OsgEarthNet.uav[92] utilizationCountManeuversMission 937
scalar OsgEarthNet.uav[92] utilizationCountManeuversMaintenance 122
scalar OsgEarthNet.uav[92] utilizationCountChargeState 61
scalar OsgEarthNet.uav[92] utilizationCountOverdrawnAfterMission 0
scalar OsgEarthNet.uav[92] utilizationCountIdleState 20
scalar OsgEarthNet.uav[92] utilizationFail 0
scalar OsgEarthNet.uav[92] simulationTime 259200
scalar OsgEarthNet.uav[93] utilizationSecMission 29314.560533753
scalar OsgEarthNet.uav[93] utilizationSecMaintenance 26634.05517152
scalar OsgEarthNet.uav[93] utilizationSecCharge 196399.37729473
scalar OsgEarthNet.uav[93] utilizationSecIdle 6852.006
scalar OsgEarthNet.uav[93] utilizationEnergyMission 144286.57228088
scalar OsgEarthNet.uav[93] utilizationEnergyMaintenance 123820.50604248
scalar OsgEarthNet.uav[93] utilizationEnergyCharge 265766.09277344
scalar OsgEarthNet.uav[93] utilizationEnergyOverdrawMission 0
scalar OsgEarthNet.uav[93] utilizationEnergyOverdrawMaintenance 0
scalar OsgEarthNet.uav[93] utilizationCountMissions 60
scalar OsgEarthNet.uav[93] utilizationCountManeuversMission 974
scalar OsgEarthNet.uav[93] utilizationCountManeuversMaintenance 120
scalar OsgEarthNet.uav[93] utilizationCountChargeState 60
scalar OsgEarthNet.uav[93] utilizationCountOverdrawnAfterMission 0
scalar OsgEarthNet.uav[93] utilizationCountIdleState 22
scalar OsgEarthNet.uav[93] utilizationFail 0
scalar OsgEarthNet.uav[93] simulationTime 259200
scalar OsgEarthNet.uav[94] utilizationSecMission 29380.103264144
scalar OsgEarthNet.uav[94] utilizationSecMaintenance 25988.028833674
scalar OsgEarthNet.uav[94] utilizationSecCharge 193369.52334767
scalar OsgEarthNet.uav[94] utilizationSecIdle 10462.343554508
scalar OsgEarthNet.uav[94] utilizationEnergyMission 139272.86515045
scalar OsgEarthNet.uav[94] utilizationEnergyMaintenance 122098.74690247
scalar OsgEarthNet.uav[94] utilizationEnergyCharge 260487.8215332
scalar OsgEarthNet.uav[94] utilizationEnergyOverdrawMission 0
scalar OsgEarthNet.uav[94] utilizationEnergyOverdrawMaintenance 51.993698120117
scalar OsgEarthNet.uav[94] utilizationCountMissions 59
scalar OsgEarthNet.uav[94] utilizationCountManeuversMission 821
scalar OsgEarthNet.uav[94] utilizationCountManeuversMaintenance 118
scalar OsgEarthNet.uav[94] utilizationCountChargeState 59
scalar OsgEarthNet.uav[94] utilizationCountOverdrawnAfterMission 1
scalar OsgEarthNet.uav[94] utilizationCountIdleState 26
scalar OsgEarthNet.uav[94] utilizationFail 0
scalar OsgEarthNet.uav[94] simulationTime 259200
scalar OsgEarthNet.uav[95] utilizationSecMission 28663.603858506
scalar OsgEarthNet.uav[95] utilizationSecMaintenance 28094.942182777
scalar OsgEarthNet.uav[95] utilizationSecCharge 196600
scalar OsgEarthNet.uav[95] utilizationSecIdle 5841.4529587171
scalar OsgEarthNet.uav[95] utilizationEnergyMission 142181.19844437
scalar OsgEarthNet.uav[95] utilizationEnergyMaintenance 130059.21240014
scalar OsgEarthNet.uav[95] utilizationEnergyCharge 265155.13769531
scalar OsgEarthNet.uav[95] utilizationEnergyOverdrawMission 0
scalar OsgEarthNet.uav[95] utilizationEnergyOverdrawMaintenance 156.23745727539
scalar OsgEarthNet.uav[95] utilizationCountMissions 61
scalar OsgEarthNet.uav[95] utilizationCountManeuversMission 990
scalar OsgEarthNet.uav[95] utilizationCountManeuversMaintenance 122
scalar OsgEarthNet.uav[95] utilizationCountChargeState 60
scalar OsgEarthNet.uav[95] utilizationCountOverdrawnAfterMission 1
scalar OsgEarthNet.uav[95] utilizationCountIdleState 23
scalar OsgEarthNet.uav[95] utilizationFail 0
scalar OsgEarthNet.uav[95] simulationTime 259200
scalar OsgEarthNet.uav[96] utilizationSecMission 29617.644547867
scalar OsgEarthNet.uav[96] utilizationSecMaintenance 26688.758923839
scalar OsgEarthNet.uav[96] utilizationSecCharge 196010.20341076
scalar OsgEarthNet.uav[96] utilizationSecIdle 6883.3921175336
scalar OsgEarthNet.uav[96] utilizationEnergyMission 144014.70954514
scalar OsgEarthNet.uav[96] utilizationEnergyMaintenance 125138.88365936
scalar OsgEarthNet.uav[96] utilizationEnergyCharge 265150.68182373
scalar OsgEarthNet.uav[96] utilizationEnergyOverdrawMission 0
scalar OsgEarthNet.uav[96] utilizationEnergyOverdrawMaintenance 0
scalar OsgEarthNet.uav[96] utilizationCountMissions 60
scalar OsgEarthNet.uav[96] utilizationCountManeuversMission 865
scalar OsgEarthNet.uav[96] utilizationCountManeuversMaintenance 120
scalar OsgEarthNet.uav[96] utilizationCountChargeState 60
scalar OsgEarthNet.uav[96] utilizationCountOverdrawnAfterMission 0
scalar OsgEarthNet.uav[96] utilizationCountIdleState 21
scalar OsgEarthNet.uav[96] utilizationFail 0
scalar OsgEarthNet.uav[96] simulationTime 259200
scalar OsgEarthNet.uav[97] utilizationSecMission 27168.154731042
scalar OsgEarthNet.uav[97] utilizationSecMaintenance 29612.261427221
scalar OsgEarthNet.uav[97] utilizationSecCharge 195077.57284174
scalar OsgEarthNet.uav[97] utilizationSecIdle 7342.01
scalar OsgEarthNet.uav[97] utilizationEnergyMission 130470.90983963
scalar OsgEarthNet.uav[97] utilizationEnergyMaintenance 137405.76872635
scalar OsgEarthNet.uav[97] utilizationEnergyCharge 267183.3371582
scalar OsgEarthNet.uav[97] utilizationEnergyOverdrawMission 0
scalar OsgEarthNet.uav[97] utilizationEnergyOverdrawMaintenance 0
scalar OsgEarthNet.uav[97] utilizationCountMissions 60
scalar OsgEarthNet.uav[97] utilizationCountManeuversMission 818
scalar OsgEarthNet.uav[97] utilizationCountManeuversMaintenance 120
scalar OsgEarthNet.uav[97] utilizationCountChargeState 60
scalar OsgEarthNet.uav[97] utilizationCountOverdrawnAfterMission 0
scalar OsgEarthNet.uav[97] utilizationCountIdleState 13
scalar OsgEarthNet.uav[97] utilizationFail 0
scalar OsgEarthNet.uav[97] simulationTime 259200
scalar OsgEarthNet.uav[98] utilizationSecMission 30342.919414038
scalar OsgEarthNet.uav[98] utilizationSecMaintenance 25749.92078539
scalar OsgEarthNet.uav[98] utilizationSecCharge 197429.70853654
scalar OsgEarthNet.uav[98] utilizationSecIdle 5677.4502640309
scalar OsgEarthNet.uav[98] utilizationEnergyMission 147544.59675217
scalar OsgEarthNet.uav[98] utilizationEnergyMaintenance 119737.75220489
scalar OsgEarthNet.uav[98] utilizationEnergyCharge 266091.3034668
scalar OsgEarthNet.uav[98] utilizationEnergyOverdrawMission 0
scalar OsgEarthNet.uav[98] utilizationEnergyOverdrawMaintenance 0
scalar OsgEarthNet.uav[98] utilizationCountMissions 60
scalar OsgEarthNet.uav[98] utilizationCountManeuversMission 987
scalar OsgEarthNet.uav[98] utilizationCountManeuversMaintenance 120
scalar OsgEarthNet.uav[98] utilizationCountChargeState 60
scalar OsgEarthNet.uav[98] utilizationCountOverdrawnAfterMission 0
scalar OsgEarthNet.uav[98] utilizationCountIdleState 25
scalar OsgEarthNet.uav[98] utilizationFail 0
scalar OsgEarthNet.uav[98] simulationTime 259200
scalar OsgEarthNet.uav[99] utilizationSecMission 29574.668979174
scalar OsgEarthNet.uav[99] utilizationSecMaintenance 26059.651570959
scalar OsgEarthNet.uav[99] utilizationSecCharge 197043.53863672
scalar OsgEarthNet.uav[99] utilizationSecIdle 6522.1398131443
scalar OsgEarthNet.uav[99] utilizationEnergyMission 142292.06315231
scalar OsgEarthNet.uav[99] utilizationEnergyMaintenance 122563.31902695
scalar OsgEarthNet.uav[99] utilizationEnergyCharge 265199.11010742
scalar OsgEarthNet.uav[99] utilizationEnergyOverdrawMission 0
scalar OsgEarthNet.uav[99] utilizationEnergyOverdrawMaintenance 0
scalar OsgEarthNet.uav[99] utilizationCountMissions 60
scalar OsgEarthNet.uav[99] utilizationCountManeuversMission 884
scalar OsgEarthNet.uav[99] utilizationCountManeuversMaintenance 120
scalar OsgEarthNet.uav[99] utilizationCountChargeState 60
scalar OsgEarthNet.uav[99] utilizationCountOverdrawnAfterMission 0
scalar OsgEarthNet.uav[99] utilizationCountIdleState 26
scalar OsgEarthNet.uav[99] utilizationFail 0
scalar OsgEarthNet.uav[99] simulationTime 259200
scalar OsgEarthNet.cs[0] usedPower 5405658.719845
scalar OsgEarthNet.cs[0] chargedPower 5405658.719845
scalar OsgEarthNet.cs[0] chargedMobileNodes 934
scalar OsgEarthNet.cs[0] reservations 1235
scalar OsgEarthNet.cs[1] usedPower 5629364.0006484
scalar OsgEarthNet.cs[1] chargedPower 5629364.0006484
scalar OsgEarthNet.cs[1] chargedMobileNodes 938
scalar OsgEarthNet.cs[1] reservations 1249
scalar OsgEarthNet.cs[2] usedPower 9672422.1022263
scalar OsgEarthNet.cs[2] chargedPower 9672422.1022263
scalar OsgEarthNet.cs[2] chargedMobileNodes 1781
scalar OsgEarthNet.cs[2] reservations 2201

