version 2
run Szenario_Hotel_Gabelbach-70-20180707-23:54:14-25420
attr configname Szenario_Hotel_Gabelbach
attr datetime 20180707-23:54:14
attr experiment Szenario_Hotel_Gabelbach
attr inifile omnetpp.ini
attr iterationvars "$quant=0.95, $replM=0"
attr iterationvarsf quant=0.95,replM=0-
attr measurement "$quant=0.95, $replM=0"
attr network OsgEarthNet
attr processid 25420
attr repetition 22
attr replication #22
attr resultdir results
attr runnumber 70
attr seedset 70
itervar quant 0.95
itervar replM 0
param *.osgEarthScene.scene "\"Szenario_Hotel_Gabelbach.earth\""
param *.playgroundLatitude 50.6830269
param *.playgroundLongitude 10.8538055
param *.playgroundWidth 3500m
param *.playgroundHeight 3500m
param *.numCSs 3
param *.numUAVs 100
param *.cs[0].posX 3537m
param *.cs[0].posY 965m
param *.cs[0].posZ 538m
param *.cs[1].posX 312m
param *.cs[1].posY 1262m
param *.cs[1].posZ 539m
param *.cs[2].posX 2185m
param *.cs[2].posY 3026m
param *.cs[2].posZ 777m
param *.uav[*].predictionQuantile 0.95
param *.uav[*].replacementMethod 0
param *.*.timeStep 10s
param *.uav[*].commandPreviewCommandCount 20
param *.missionControl.missionFiles "\"missions\\\\Szenario_WB_Hotel_Gabelbach_Mission_Hotel.waypoints,missions\\\\Szenario_WB_Hotel_Gabelbach_Mission_Kickelhahn.waypoints,missions\\\\Szenario_WB_Hotel_Gabelbach_Mission_Ilmenau_Sportplatz.waypoints,missions\\\\Szenario_WB_Hotel_Gabelbach_Mission_Manebach_Mitte.waypoints,missions\\\\Szenario_WB_Hotel_Gabelbach_Mission_Manebach_Sued.waypoints,missions\\\\Szenario_WB_Hotel_Gabelbach_Hover_HoheSchlaufe.waypoints,missions\\\\Szenario_WB_Hotel_Gabelbach_Hover_Kickelhahn.waypoints,missions\\\\Szenario_WB_Hotel_Gabelbach_Hover_Gabelbachskopf.waypoints,missions\\\\Szenario_WB_Hotel_Gabelbach_Hover_Dachskopf.waypoints\""
param *.uav[0].startX 3537m
param *.uav[0].startY 965m
param *.uav[0].startZ 539m
param *.uav[1].startX 312m
param *.uav[1].startY 1262m
param *.uav[1].startZ 540m
param *.uav[2].startX 2185m
param *.uav[2].startY 3026m
param *.uav[2].startZ 778m
param *.uav[3].startX 3537m
param *.uav[3].startY 965m
param *.uav[3].startZ 539m
param *.uav[4].startX 312m
param *.uav[4].startY 1262m
param *.uav[4].startZ 540m
param *.uav[5].startX 2185m
param *.uav[5].startY 3026m
param *.uav[5].startZ 778m
param *.uav[6].startX 3537m
param *.uav[6].startY 965m
param *.uav[6].startZ 539m
param *.uav[7].startX 312m
param *.uav[7].startY 1262m
param *.uav[7].startZ 540m
param *.uav[8].startX 2185m
param *.uav[8].startY 3026m
param *.uav[8].startZ 778m
param *.uav[9].startX 3537m
param *.uav[9].startY 965m
param *.uav[9].startZ 539m
param *.uav[10].startX 3537m
param *.uav[10].startY 965m
param *.uav[10].startZ 539m
param *.uav[11].startX 312m
param *.uav[11].startY 1262m
param *.uav[11].startZ 540m
param *.uav[12].startX 2185m
param *.uav[12].startY 3026m
param *.uav[12].startZ 778m
param *.uav[13].startX 3537m
param *.uav[13].startY 965m
param *.uav[13].startZ 539m
param *.uav[14].startX 312m
param *.uav[14].startY 1262m
param *.uav[14].startZ 540m
param *.uav[15].startX 2185m
param *.uav[15].startY 3026m
param *.uav[15].startZ 778m
param *.uav[16].startX 3537m
param *.uav[16].startY 965m
param *.uav[16].startZ 539m
param *.uav[17].startX 312m
param *.uav[17].startY 1262m
param *.uav[17].startZ 540m
param *.uav[18].startX 2185m
param *.uav[18].startY 3026m
param *.uav[18].startZ 778m
param *.uav[19].startX 3537m
param *.uav[19].startY 965m
param *.uav[19].startZ 539m
param *.uav[20].startX 3537m
param *.uav[20].startY 965m
param *.uav[20].startZ 539m
param *.uav[21].startX 312m
param *.uav[21].startY 1262m
param *.uav[21].startZ 540m
param *.uav[22].startX 2185m
param *.uav[22].startY 3026m
param *.uav[22].startZ 778m
param *.uav[23].startX 3537m
param *.uav[23].startY 965m
param *.uav[23].startZ 539m
param *.uav[24].startX 312m
param *.uav[24].startY 1262m
param *.uav[24].startZ 540m
param *.uav[25].startX 2185m
param *.uav[25].startY 3026m
param *.uav[25].startZ 778m
param *.uav[26].startX 3537m
param *.uav[26].startY 965m
param *.uav[26].startZ 539m
param *.uav[27].startX 312m
param *.uav[27].startY 1262m
param *.uav[27].startZ 540m
param *.uav[28].startX 2185m
param *.uav[28].startY 3026m
param *.uav[28].startZ 778m
param *.uav[29].startX 3537m
param *.uav[29].startY 965m
param *.uav[29].startZ 539m
param *.uav[30].startX 3537m
param *.uav[30].startY 965m
param *.uav[30].startZ 539m
param *.uav[31].startX 312m
param *.uav[31].startY 1262m
param *.uav[31].startZ 540m
param *.uav[32].startX 2185m
param *.uav[32].startY 3026m
param *.uav[32].startZ 778m
param *.uav[33].startX 3537m
param *.uav[33].startY 965m
param *.uav[33].startZ 539m
param *.uav[34].startX 312m
param *.uav[34].startY 1262m
param *.uav[34].startZ 540m
param *.uav[35].startX 2185m
param *.uav[35].startY 3026m
param *.uav[35].startZ 778m
param *.uav[36].startX 3537m
param *.uav[36].startY 965m
param *.uav[36].startZ 539m
param *.uav[37].startX 312m
param *.uav[37].startY 1262m
param *.uav[37].startZ 540m
param *.uav[38].startX 2185m
param *.uav[38].startY 3026m
param *.uav[38].startZ 778m
param *.uav[39].startX 3537m
param *.uav[39].startY 965m
param *.uav[39].startZ 539m
param *.uav[40].startX 3537m
param *.uav[40].startY 965m
param *.uav[40].startZ 539m
param *.uav[41].startX 312m
param *.uav[41].startY 1262m
param *.uav[41].startZ 540m
param *.uav[42].startX 2185m
param *.uav[42].startY 3026m
param *.uav[42].startZ 778m
param *.uav[43].startX 3537m
param *.uav[43].startY 965m
param *.uav[43].startZ 539m
param *.uav[44].startX 312m
param *.uav[44].startY 1262m
param *.uav[44].startZ 540m
param *.uav[45].startX 2185m
param *.uav[45].startY 3026m
param *.uav[45].startZ 778m
param *.uav[46].startX 3537m
param *.uav[46].startY 965m
param *.uav[46].startZ 539m
param *.uav[47].startX 312m
param *.uav[47].startY 1262m
param *.uav[47].startZ 540m
param *.uav[48].startX 2185m
param *.uav[48].startY 3026m
param *.uav[48].startZ 778m
param *.uav[49].startX 3537m
param *.uav[49].startY 965m
param *.uav[49].startZ 539m
param *.uav[50].startX 3537m
param *.uav[50].startY 965m
param *.uav[50].startZ 539m
param *.uav[51].startX 312m
param *.uav[51].startY 1262m
param *.uav[51].startZ 540m
param *.uav[52].startX 2185m
param *.uav[52].startY 3026m
param *.uav[52].startZ 778m
param *.uav[53].startX 3537m
param *.uav[53].startY 965m
param *.uav[53].startZ 539m
param *.uav[54].startX 312m
param *.uav[54].startY 1262m
param *.uav[54].startZ 540m
param *.uav[55].startX 2185m
param *.uav[55].startY 3026m
param *.uav[55].startZ 778m
param *.uav[56].startX 3537m
param *.uav[56].startY 965m
param *.uav[56].startZ 539m
param *.uav[57].startX 312m
param *.uav[57].startY 1262m
param *.uav[57].startZ 540m
param *.uav[58].startX 2185m
param *.uav[58].startY 3026m
param *.uav[58].startZ 778m
param *.uav[59].startX 3537m
param *.uav[59].startY 965m
param *.uav[59].startZ 539m
param *.uav[60].startX 3537m
param *.uav[60].startY 965m
param *.uav[60].startZ 539m
param *.uav[61].startX 312m
param *.uav[61].startY 1262m
param *.uav[61].startZ 540m
param *.uav[62].startX 2185m
param *.uav[62].startY 3026m
param *.uav[62].startZ 778m
param *.uav[63].startX 3537m
param *.uav[63].startY 965m
param *.uav[63].startZ 539m
param *.uav[64].startX 312m
param *.uav[64].startY 1262m
param *.uav[64].startZ 540m
param *.uav[65].startX 2185m
param *.uav[65].startY 3026m
param *.uav[65].startZ 778m
param *.uav[66].startX 3537m
param *.uav[66].startY 965m
param *.uav[66].startZ 539m
param *.uav[67].startX 312m
param *.uav[67].startY 1262m
param *.uav[67].startZ 540m
param *.uav[68].startX 2185m
param *.uav[68].startY 3026m
param *.uav[68].startZ 778m
param *.uav[69].startX 3537m
param *.uav[69].startY 965m
param *.uav[69].startZ 539m
param *.uav[70].startX 3537m
param *.uav[70].startY 965m
param *.uav[70].startZ 539m
param *.uav[71].startX 312m
param *.uav[71].startY 1262m
param *.uav[71].startZ 540m
param *.uav[72].startX 2185m
param *.uav[72].startY 3026m
param *.uav[72].startZ 778m
param *.uav[73].startX 3537m
param *.uav[73].startY 965m
param *.uav[73].startZ 539m
param *.uav[74].startX 312m
param *.uav[74].startY 1262m
param *.uav[74].startZ 540m
param *.uav[75].startX 2185m
param *.uav[75].startY 3026m
param *.uav[75].startZ 778m
param *.uav[76].startX 3537m
param *.uav[76].startY 965m
param *.uav[76].startZ 539m
param *.uav[77].startX 312m
param *.uav[77].startY 1262m
param *.uav[77].startZ 540m
param *.uav[78].startX 2185m
param *.uav[78].startY 3026m
param *.uav[78].startZ 778m
param *.uav[79].startX 3537m
param *.uav[79].startY 965m
param *.uav[79].startZ 539m
param *.uav[80].startX 3537m
param *.uav[80].startY 965m
param *.uav[80].startZ 539m
param *.uav[81].startX 312m
param *.uav[81].startY 1262m
param *.uav[81].startZ 540m
param *.uav[82].startX 2185m
param *.uav[82].startY 3026m
param *.uav[82].startZ 778m
param *.uav[83].startX 3537m
param *.uav[83].startY 965m
param *.uav[83].startZ 539m
param *.uav[84].startX 312m
param *.uav[84].startY 1262m
param *.uav[84].startZ 540m
param *.uav[85].startX 2185m
param *.uav[85].startY 3026m
param *.uav[85].startZ 778m
param *.uav[86].startX 3537m
param *.uav[86].startY 965m
param *.uav[86].startZ 539m
param *.uav[87].startX 312m
param *.uav[87].startY 1262m
param *.uav[87].startZ 540m
param *.uav[88].startX 2185m
param *.uav[88].startY 3026m
param *.uav[88].startZ 778m
param *.uav[89].startX 3537m
param *.uav[89].startY 965m
param *.uav[89].startZ 539m
param *.uav[90].startX 3537m
param *.uav[90].startY 965m
param *.uav[90].startZ 539m
param *.uav[91].startX 312m
param *.uav[91].startY 1262m
param *.uav[91].startZ 540m
param *.uav[92].startX 2185m
param *.uav[92].startY 3026m
param *.uav[92].startZ 778m
param *.uav[93].startX 3537m
param *.uav[93].startY 965m
param *.uav[93].startZ 539m
param *.uav[94].startX 312m
param *.uav[94].startY 1262m
param *.uav[94].startZ 540m
param *.uav[95].startX 2185m
param *.uav[95].startY 3026m
param *.uav[95].startZ 778m
param *.uav[96].startX 3537m
param *.uav[96].startY 965m
param *.uav[96].startZ 539m
param *.uav[97].startX 312m
param *.uav[97].startY 1262m
param *.uav[97].startZ 540m
param *.uav[98].startX 2185m
param *.uav[98].startY 3026m
param *.uav[98].startZ 778m
param *.uav[99].startX 3537m
param *.uav[99].startY 965m
param *.uav[99].startZ 539m
param *.osgEarthScene.scene "\"boston.earth\""
param *.playgroundLatitude 42.3558
param *.playgroundLongitude -71.0677
param *.playgroundWidth 400m
param *.playgroundHeight 200m
param *.channelController.connectionColor "\"#0000FF40\""
param *.channelController.showConnections false
param *.uav[*].modelURL "\"quadrocopter.small.obj.15.scale.0,0,90.rot\""
param *.uav[*].labelColor "\"#FF7C00CC\""
param *.uav[*].label2Color "\"#FF7C00EE\""
param *.uav[*].batteryCapacity 5200mAh
param *.uav[*].batteryRemaining uav[index].batteryCapacity
param *.uav[*].predictionQuantile 0.95
param *.uav[*].replacementMethod 2
param *.uav[*].weightedSumWeight 0.5
param *.cs[*].modelURL "\"chargingstation_v1.osgt.1.scale.0,0,0.rot.0,0,-15e-1.trans\""
param *.cs[*].spotsWaiting 999
param *.cs[*].spotsCharging 999
param *.cs[*].chargeEffectivenessPercentage 100
param *.cs[*].nonLinearPhaseStartPercentage 85
param *.cs[*].chargeCurrent 6.0A
param *.cs[*].prioritizeFastCharge true
param *.missionControl.replacementSearchMethod 0
param *.*.timeStep 9s

scalar OsgEarthNet.uav[0] utilizationSecMission 27188.071723983
scalar OsgEarthNet.uav[0] utilizationSecMaintenance 24779.927276017
scalar OsgEarthNet.uav[0] utilizationSecCharge 187800
scalar OsgEarthNet.uav[0] utilizationSecIdle 19432
scalar OsgEarthNet.uav[0] utilizationEnergyMission 134024.61924544
scalar OsgEarthNet.uav[0] utilizationEnergyMaintenance 116643.27345657
scalar OsgEarthNet.uav[0] utilizationEnergyCharge 246503.52514648
scalar OsgEarthNet.uav[0] utilizationEnergyOverdrawMission 0
scalar OsgEarthNet.uav[0] utilizationEnergyOverdrawMaintenance 307.06744384766
scalar OsgEarthNet.uav[0] utilizationCountMissions 55
scalar OsgEarthNet.uav[0] utilizationCountManeuversMission 913
scalar OsgEarthNet.uav[0] utilizationCountManeuversMaintenance 110
scalar OsgEarthNet.uav[0] utilizationCountChargeState 55
scalar OsgEarthNet.uav[0] utilizationCountOverdrawnAfterMission 1
scalar OsgEarthNet.uav[0] utilizationCountIdleState 56
scalar OsgEarthNet.uav[0] utilizationFail 0
scalar OsgEarthNet.uav[0] simulationTime 259200
scalar OsgEarthNet.uav[1] utilizationSecMission 28506.573145365
scalar OsgEarthNet.uav[1] utilizationSecMaintenance 21091.422854635
scalar OsgEarthNet.uav[1] utilizationSecCharge 177400
scalar OsgEarthNet.uav[1] utilizationSecIdle 32202.003
scalar OsgEarthNet.uav[1] utilizationEnergyMission 138406.85193634
scalar OsgEarthNet.uav[1] utilizationEnergyMaintenance 98316.426554594
scalar OsgEarthNet.uav[1] utilizationEnergyCharge 232760.66186523
scalar OsgEarthNet.uav[1] utilizationEnergyOverdrawMission 0
scalar OsgEarthNet.uav[1] utilizationEnergyOverdrawMaintenance 0
scalar OsgEarthNet.uav[1] utilizationCountMissions 53
scalar OsgEarthNet.uav[1] utilizationCountManeuversMission 848
scalar OsgEarthNet.uav[1] utilizationCountManeuversMaintenance 106
scalar OsgEarthNet.uav[1] utilizationCountChargeState 52
scalar OsgEarthNet.uav[1] utilizationCountOverdrawnAfterMission 0
scalar OsgEarthNet.uav[1] utilizationCountIdleState 53
scalar OsgEarthNet.uav[1] utilizationFail 0
scalar OsgEarthNet.uav[1] simulationTime 259200
scalar OsgEarthNet.uav[2] utilizationSecMission 23256.90386141
scalar OsgEarthNet.uav[2] utilizationSecMaintenance 20991.078784329
scalar OsgEarthNet.uav[2] utilizationSecCharge 159740.01235426
scalar OsgEarthNet.uav[2] utilizationSecIdle 55212.004
scalar OsgEarthNet.uav[2] utilizationEnergyMission 113585.23646164
scalar OsgEarthNet.uav[2] utilizationEnergyMaintenance 96821.229496002
scalar OsgEarthNet.uav[2] utilizationEnergyCharge 209418.29345703
scalar OsgEarthNet.uav[2] utilizationEnergyOverdrawMission 0
scalar OsgEarthNet.uav[2] utilizationEnergyOverdrawMaintenance 0
scalar OsgEarthNet.uav[2] utilizationCountMissions 47
scalar OsgEarthNet.uav[2] utilizationCountManeuversMission 747
scalar OsgEarthNet.uav[2] utilizationCountManeuversMaintenance 94
scalar OsgEarthNet.uav[2] utilizationCountChargeState 47
scalar OsgEarthNet.uav[2] utilizationCountOverdrawnAfterMission 0
scalar OsgEarthNet.uav[2] utilizationCountIdleState 47
scalar OsgEarthNet.uav[2] utilizationFail 0
scalar OsgEarthNet.uav[2] simulationTime 259200
scalar OsgEarthNet.uav[3] utilizationSecMission 320
scalar OsgEarthNet.uav[3] utilizationSecMaintenance 524.03331269068
scalar OsgEarthNet.uav[3] utilizationSecCharge 3320
scalar OsgEarthNet.uav[3] utilizationSecIdle 255035.96568731
scalar OsgEarthNet.uav[3] utilizationEnergyMission 1364.3149299622
scalar OsgEarthNet.uav[3] utilizationEnergyMaintenance 2490.5659294128
scalar OsgEarthNet.uav[3] utilizationEnergyCharge 4332.2592773438
scalar OsgEarthNet.uav[3] utilizationEnergyOverdrawMission 0
scalar OsgEarthNet.uav[3] utilizationEnergyOverdrawMaintenance 0
scalar OsgEarthNet.uav[3] utilizationCountMissions 1
scalar OsgEarthNet.uav[3] utilizationCountManeuversMission 16
scalar OsgEarthNet.uav[3] utilizationCountManeuversMaintenance 2
scalar OsgEarthNet.uav[3] utilizationCountChargeState 1
scalar OsgEarthNet.uav[3] utilizationCountOverdrawnAfterMission 0
scalar OsgEarthNet.uav[3] utilizationCountIdleState 2
scalar OsgEarthNet.uav[3] utilizationFail 0
scalar OsgEarthNet.uav[3] simulationTime 259200
scalar OsgEarthNet.uav[4] utilizationSecMission 23950.883978235
scalar OsgEarthNet.uav[4] utilizationSecMaintenance 19078.233591365
scalar OsgEarthNet.uav[4] utilizationSecCharge 155910
scalar OsgEarthNet.uav[4] utilizationSecIdle 60260.8814304
scalar OsgEarthNet.uav[4] utilizationEnergyMission 117155.94250107
scalar OsgEarthNet.uav[4] utilizationEnergyMaintenance 87927.586479187
scalar OsgEarthNet.uav[4] utilizationEnergyCharge 203560.11450195
scalar OsgEarthNet.uav[4] utilizationEnergyOverdrawMission 0
scalar OsgEarthNet.uav[4] utilizationEnergyOverdrawMaintenance 0
scalar OsgEarthNet.uav[4] utilizationCountMissions 46
scalar OsgEarthNet.uav[4] utilizationCountManeuversMission 781
scalar OsgEarthNet.uav[4] utilizationCountManeuversMaintenance 92
scalar OsgEarthNet.uav[4] utilizationCountChargeState 46
scalar OsgEarthNet.uav[4] utilizationCountOverdrawnAfterMission 0
scalar OsgEarthNet.uav[4] utilizationCountIdleState 47
scalar OsgEarthNet.uav[4] utilizationFail 0
scalar OsgEarthNet.uav[4] simulationTime 259200
scalar OsgEarthNet.uav[5] utilizationSecMission 25072.672318089
scalar OsgEarthNet.uav[5] utilizationSecMaintenance 22418.698185353
scalar OsgEarthNet.uav[5] utilizationSecCharge 171323.17284315
scalar OsgEarthNet.uav[5] utilizationSecIdle 40385.455653403
scalar OsgEarthNet.uav[5] utilizationEnergyMission 120223.09149933
scalar OsgEarthNet.uav[5] utilizationEnergyMaintenance 105551.95500183
scalar OsgEarthNet.uav[5] utilizationEnergyCharge 223156.84375
scalar OsgEarthNet.uav[5] utilizationEnergyOverdrawMission 0
scalar OsgEarthNet.uav[5] utilizationEnergyOverdrawMaintenance 0
scalar OsgEarthNet.uav[5] utilizationCountMissions 52
scalar OsgEarthNet.uav[5] utilizationCountManeuversMission 814
scalar OsgEarthNet.uav[5] utilizationCountManeuversMaintenance 104
scalar OsgEarthNet.uav[5] utilizationCountChargeState 52
scalar OsgEarthNet.uav[5] utilizationCountOverdrawnAfterMission 0
scalar OsgEarthNet.uav[5] utilizationCountIdleState 52
scalar OsgEarthNet.uav[5] utilizationFail 0
scalar OsgEarthNet.uav[5] simulationTime 259200
scalar OsgEarthNet.uav[6] utilizationSecMission 1007.9662875986
scalar OsgEarthNet.uav[6] utilizationSecMaintenance 953.49288579949
scalar OsgEarthNet.uav[6] utilizationSecCharge 6890
scalar OsgEarthNet.uav[6] utilizationSecIdle 250348.5398266
scalar OsgEarthNet.uav[6] utilizationEnergyMission 5006.3104896545
scalar OsgEarthNet.uav[6] utilizationEnergyMaintenance 4302.7544288635
scalar OsgEarthNet.uav[6] utilizationEnergyCharge 9073.4208984375
scalar OsgEarthNet.uav[6] utilizationEnergyOverdrawMission 0
scalar OsgEarthNet.uav[6] utilizationEnergyOverdrawMaintenance 0
scalar OsgEarthNet.uav[6] utilizationCountMissions 2
scalar OsgEarthNet.uav[6] utilizationCountManeuversMission 27
scalar OsgEarthNet.uav[6] utilizationCountManeuversMaintenance 4
scalar OsgEarthNet.uav[6] utilizationCountChargeState 2
scalar OsgEarthNet.uav[6] utilizationCountOverdrawnAfterMission 0
scalar OsgEarthNet.uav[6] utilizationCountIdleState 3
scalar OsgEarthNet.uav[6] utilizationFail 0
scalar OsgEarthNet.uav[6] simulationTime 259200
scalar OsgEarthNet.uav[7] utilizationSecMission 23035.119188325
scalar OsgEarthNet.uav[7] utilizationSecMaintenance 22454.871877092
scalar OsgEarthNet.uav[7] utilizationSecCharge 164170
scalar OsgEarthNet.uav[7] utilizationSecIdle 49540.007934583
scalar OsgEarthNet.uav[7] utilizationEnergyMission 111305.88205496
scalar OsgEarthNet.uav[7] utilizationEnergyMaintenance 104656.7852478
scalar OsgEarthNet.uav[7] utilizationEnergyCharge 215793.41723633
scalar OsgEarthNet.uav[7] utilizationEnergyOverdrawMission 0
scalar OsgEarthNet.uav[7] utilizationEnergyOverdrawMaintenance 0
scalar OsgEarthNet.uav[7] utilizationCountMissions 48
scalar OsgEarthNet.uav[7] utilizationCountManeuversMission 764
scalar OsgEarthNet.uav[7] utilizationCountManeuversMaintenance 97
scalar OsgEarthNet.uav[7] utilizationCountChargeState 48
scalar OsgEarthNet.uav[7] utilizationCountOverdrawnAfterMission 0
scalar OsgEarthNet.uav[7] utilizationCountIdleState 49
scalar OsgEarthNet.uav[7] utilizationFail 0
scalar OsgEarthNet.uav[7] simulationTime 259200
scalar OsgEarthNet.uav[8] utilizationSecMission 8108.8265290214
scalar OsgEarthNet.uav[8] utilizationSecMaintenance 6985.0811928159
scalar OsgEarthNet.uav[8] utilizationSecCharge 52176.048730748
scalar OsgEarthNet.uav[8] utilizationSecIdle 191930.04254741
scalar OsgEarthNet.uav[8] utilizationEnergyMission 39794.376491547
scalar OsgEarthNet.uav[8] utilizationEnergyMaintenance 32722.767292023
scalar OsgEarthNet.uav[8] utilizationEnergyCharge 69084.218994141
scalar OsgEarthNet.uav[8] utilizationEnergyOverdrawMission 0
scalar OsgEarthNet.uav[8] utilizationEnergyOverdrawMaintenance 0
scalar OsgEarthNet.uav[8] utilizationCountMissions 16
scalar OsgEarthNet.uav[8] utilizationCountManeuversMission 237
scalar OsgEarthNet.uav[8] utilizationCountManeuversMaintenance 32
scalar OsgEarthNet.uav[8] utilizationCountChargeState 16
scalar OsgEarthNet.uav[8] utilizationCountOverdrawnAfterMission 0
scalar OsgEarthNet.uav[8] utilizationCountIdleState 16
scalar OsgEarthNet.uav[8] utilizationFail 0
scalar OsgEarthNet.uav[8] simulationTime 259200
scalar OsgEarthNet.uav[9] utilizationSecMission 25649.13562781
scalar OsgEarthNet.uav[9] utilizationSecMaintenance 23844.370185855
scalar OsgEarthNet.uav[9] utilizationSecCharge 178246.54991764
scalar OsgEarthNet.uav[9] utilizationSecIdle 31459.9432687
scalar OsgEarthNet.uav[9] utilizationEnergyMission 122801.82427597
scalar OsgEarthNet.uav[9] utilizationEnergyMaintenance 110905.87196732
scalar OsgEarthNet.uav[9] utilizationEnergyCharge 235461.93212891
scalar OsgEarthNet.uav[9] utilizationEnergyOverdrawMission 0
scalar OsgEarthNet.uav[9] utilizationEnergyOverdrawMaintenance 31.62038230896
scalar OsgEarthNet.uav[9] utilizationCountMissions 52
scalar OsgEarthNet.uav[9] utilizationCountManeuversMission 784
scalar OsgEarthNet.uav[9] utilizationCountManeuversMaintenance 104
scalar OsgEarthNet.uav[9] utilizationCountChargeState 52
scalar OsgEarthNet.uav[9] utilizationCountOverdrawnAfterMission 1
scalar OsgEarthNet.uav[9] utilizationCountIdleState 52
scalar OsgEarthNet.uav[9] utilizationFail 0
scalar OsgEarthNet.uav[9] simulationTime 259200
scalar OsgEarthNet.uav[10] utilizationSecMission 595.61789681617
scalar OsgEarthNet.uav[10] utilizationSecMaintenance 462.68687137477
scalar OsgEarthNet.uav[10] utilizationSecCharge 3620
scalar OsgEarthNet.uav[10] utilizationSecIdle 254521.69423181
scalar OsgEarthNet.uav[10] utilizationEnergyMission 2682.0824966431
scalar OsgEarthNet.uav[10] utilizationEnergyMaintenance 2155.6910514832
scalar OsgEarthNet.uav[10] utilizationEnergyCharge 4895.3627929688
scalar OsgEarthNet.uav[10] utilizationEnergyOverdrawMission 0
scalar OsgEarthNet.uav[10] utilizationEnergyOverdrawMaintenance 0
scalar OsgEarthNet.uav[10] utilizationCountMissions 1
scalar OsgEarthNet.uav[10] utilizationCountManeuversMission 10
scalar OsgEarthNet.uav[10] utilizationCountManeuversMaintenance 2
scalar OsgEarthNet.uav[10] utilizationCountChargeState 1
scalar OsgEarthNet.uav[10] utilizationCountOverdrawnAfterMission 0
scalar OsgEarthNet.uav[10] utilizationCountIdleState 2
scalar OsgEarthNet.uav[10] utilizationFail 0
scalar OsgEarthNet.uav[10] simulationTime 259200
scalar OsgEarthNet.uav[11] utilizationSecMission 3542.1827536824
scalar OsgEarthNet.uav[11] utilizationSecMaintenance 2825.4865517731
scalar OsgEarthNet.uav[11] utilizationSecCharge 24150
scalar OsgEarthNet.uav[11] utilizationSecIdle 228682.32969454
scalar OsgEarthNet.uav[11] utilizationEnergyMission 18290.260231018
scalar OsgEarthNet.uav[11] utilizationEnergyMaintenance 13117.997722626
scalar OsgEarthNet.uav[11] utilizationEnergyCharge 31847.608886719
scalar OsgEarthNet.uav[11] utilizationEnergyOverdrawMission 0
scalar OsgEarthNet.uav[11] utilizationEnergyOverdrawMaintenance 0
scalar OsgEarthNet.uav[11] utilizationCountMissions 7
scalar OsgEarthNet.uav[11] utilizationCountManeuversMission 140
scalar OsgEarthNet.uav[11] utilizationCountManeuversMaintenance 14
scalar OsgEarthNet.uav[11] utilizationCountChargeState 7
scalar OsgEarthNet.uav[11] utilizationCountOverdrawnAfterMission 0
scalar OsgEarthNet.uav[11] utilizationCountIdleState 8
scalar OsgEarthNet.uav[11] utilizationFail 0
scalar OsgEarthNet.uav[11] simulationTime 259200
scalar OsgEarthNet.uav[12] utilizationSecMission 20143.337107353
scalar OsgEarthNet.uav[12] utilizationSecMaintenance 17071.904653049
scalar OsgEarthNet.uav[12] utilizationSecCharge 131852.7502396
scalar OsgEarthNet.uav[12] utilizationSecIdle 90132.007
scalar OsgEarthNet.uav[12] utilizationEnergyMission 96669.911582947
scalar OsgEarthNet.uav[12] utilizationEnergyMaintenance 79070.432876587
scalar OsgEarthNet.uav[12] utilizationEnergyCharge 172193.39990234
scalar OsgEarthNet.uav[12] utilizationEnergyOverdrawMission 0
scalar OsgEarthNet.uav[12] utilizationEnergyOverdrawMaintenance 0
scalar OsgEarthNet.uav[12] utilizationCountMissions 40
scalar OsgEarthNet.uav[12] utilizationCountManeuversMission 613
scalar OsgEarthNet.uav[12] utilizationCountManeuversMaintenance 80
scalar OsgEarthNet.uav[12] utilizationCountChargeState 40
scalar OsgEarthNet.uav[12] utilizationCountOverdrawnAfterMission 0
scalar OsgEarthNet.uav[12] utilizationCountIdleState 40
scalar OsgEarthNet.uav[12] utilizationFail 0
scalar OsgEarthNet.uav[12] simulationTime 259200
scalar OsgEarthNet.uav[13] utilizationSecMission 23487.52754324
scalar OsgEarthNet.uav[13] utilizationSecMaintenance 21090.151248033
scalar OsgEarthNet.uav[13] utilizationSecCharge 159121.1246296
scalar OsgEarthNet.uav[13] utilizationSecIdle 55501.195579123
scalar OsgEarthNet.uav[13] utilizationEnergyMission 114159.85871124
scalar OsgEarthNet.uav[13] utilizationEnergyMaintenance 100012.45244217
scalar OsgEarthNet.uav[13] utilizationEnergyCharge 209899.44720459
scalar OsgEarthNet.uav[13] utilizationEnergyOverdrawMission 0
scalar OsgEarthNet.uav[13] utilizationEnergyOverdrawMaintenance 15.464882850647
scalar OsgEarthNet.uav[13] utilizationCountMissions 47
scalar OsgEarthNet.uav[13] utilizationCountManeuversMission 672
scalar OsgEarthNet.uav[13] utilizationCountManeuversMaintenance 94
scalar OsgEarthNet.uav[13] utilizationCountChargeState 47
scalar OsgEarthNet.uav[13] utilizationCountOverdrawnAfterMission 1
scalar OsgEarthNet.uav[13] utilizationCountIdleState 47
scalar OsgEarthNet.uav[13] utilizationFail 0
scalar OsgEarthNet.uav[13] simulationTime 259200
scalar OsgEarthNet.uav[14] utilizationSecMission 21553.280417804
scalar OsgEarthNet.uav[14] utilizationSecMaintenance 20199.089277828
scalar OsgEarthNet.uav[14] utilizationSecCharge 150103.96312134
scalar OsgEarthNet.uav[14] utilizationSecIdle 67343.666183032
scalar OsgEarthNet.uav[14] utilizationEnergyMission 104373.37247086
scalar OsgEarthNet.uav[14] utilizationEnergyMaintenance 95479.169464111
scalar OsgEarthNet.uav[14] utilizationEnergyCharge 197085.88964844
scalar OsgEarthNet.uav[14] utilizationEnergyOverdrawMission 0
scalar OsgEarthNet.uav[14] utilizationEnergyOverdrawMaintenance 0
scalar OsgEarthNet.uav[14] utilizationCountMissions 45
scalar OsgEarthNet.uav[14] utilizationCountManeuversMission 676
scalar OsgEarthNet.uav[14] utilizationCountManeuversMaintenance 90
scalar OsgEarthNet.uav[14] utilizationCountChargeState 45
scalar OsgEarthNet.uav[14] utilizationCountOverdrawnAfterMission 0
scalar OsgEarthNet.uav[14] utilizationCountIdleState 45
scalar OsgEarthNet.uav[14] utilizationFail 0
scalar OsgEarthNet.uav[14] simulationTime 259200
scalar OsgEarthNet.uav[15] utilizationSecMission 24550.561640274
scalar OsgEarthNet.uav[15] utilizationSecMaintenance 24817.524168875
scalar OsgEarthNet.uav[15] utilizationSecCharge 179020
scalar OsgEarthNet.uav[15] utilizationSecIdle 30811.913190852
scalar OsgEarthNet.uav[15] utilizationEnergyMission 119086.23630524
scalar OsgEarthNet.uav[15] utilizationEnergyMaintenance 115376.73636246
scalar OsgEarthNet.uav[15] utilizationEnergyCharge 233396.17285156
scalar OsgEarthNet.uav[15] utilizationEnergyOverdrawMission 0
scalar OsgEarthNet.uav[15] utilizationEnergyOverdrawMaintenance 0
scalar OsgEarthNet.uav[15] utilizationCountMissions 53
scalar OsgEarthNet.uav[15] utilizationCountManeuversMission 772
scalar OsgEarthNet.uav[15] utilizationCountManeuversMaintenance 106
scalar OsgEarthNet.uav[15] utilizationCountChargeState 53
scalar OsgEarthNet.uav[15] utilizationCountOverdrawnAfterMission 0
scalar OsgEarthNet.uav[15] utilizationCountIdleState 54
scalar OsgEarthNet.uav[15] utilizationFail 0
scalar OsgEarthNet.uav[15] simulationTime 259200
scalar OsgEarthNet.uav[16] utilizationSecMission 420
scalar OsgEarthNet.uav[16] utilizationSecMaintenance 524.03331269068
scalar OsgEarthNet.uav[16] utilizationSecCharge 3350
scalar OsgEarthNet.uav[16] utilizationSecIdle 254905.96568731
scalar OsgEarthNet.uav[16] utilizationEnergyMission 2070.3648071289
scalar OsgEarthNet.uav[16] utilizationEnergyMaintenance 2648.3540153503
scalar OsgEarthNet.uav[16] utilizationEnergyCharge 4400.5708007812
scalar OsgEarthNet.uav[16] utilizationEnergyOverdrawMission 0
scalar OsgEarthNet.uav[16] utilizationEnergyOverdrawMaintenance 0
scalar OsgEarthNet.uav[16] utilizationCountMissions 1
scalar OsgEarthNet.uav[16] utilizationCountManeuversMission 21
scalar OsgEarthNet.uav[16] utilizationCountManeuversMaintenance 2
scalar OsgEarthNet.uav[16] utilizationCountChargeState 1
scalar OsgEarthNet.uav[16] utilizationCountOverdrawnAfterMission 0
scalar OsgEarthNet.uav[16] utilizationCountIdleState 2
scalar OsgEarthNet.uav[16] utilizationFail 0
scalar OsgEarthNet.uav[16] simulationTime 259200
scalar OsgEarthNet.uav[17] utilizationSecMission 29259.446149461
scalar OsgEarthNet.uav[17] utilizationSecMaintenance 22085.362939849
scalar OsgEarthNet.uav[17] utilizationSecCharge 182373.18891069
scalar OsgEarthNet.uav[17] utilizationSecIdle 25482.001
scalar OsgEarthNet.uav[17] utilizationEnergyMission 139780.15655136
scalar OsgEarthNet.uav[17] utilizationEnergyMaintenance 102519.39296722
scalar OsgEarthNet.uav[17] utilizationEnergyCharge 239769.68676758
scalar OsgEarthNet.uav[17] utilizationEnergyOverdrawMission 0
scalar OsgEarthNet.uav[17] utilizationEnergyOverdrawMaintenance 0
scalar OsgEarthNet.uav[17] utilizationCountMissions 54
scalar OsgEarthNet.uav[17] utilizationCountManeuversMission 845
scalar OsgEarthNet.uav[17] utilizationCountManeuversMaintenance 108
scalar OsgEarthNet.uav[17] utilizationCountChargeState 54
scalar OsgEarthNet.uav[17] utilizationCountOverdrawnAfterMission 0
scalar OsgEarthNet.uav[17] utilizationCountIdleState 54
scalar OsgEarthNet.uav[17] utilizationFail 0
scalar OsgEarthNet.uav[17] simulationTime 259200
scalar OsgEarthNet.uav[18] utilizationSecMission 13604.561619171
scalar OsgEarthNet.uav[18] utilizationSecMaintenance 11506.955053993
scalar OsgEarthNet.uav[18] utilizationSecCharge 90600
scalar OsgEarthNet.uav[18] utilizationSecIdle 143488.48232684
scalar OsgEarthNet.uav[18] utilizationEnergyMission 64729.195835114
scalar OsgEarthNet.uav[18] utilizationEnergyMaintenance 53764.521648407
scalar OsgEarthNet.uav[18] utilizationEnergyCharge 118228.83813477
scalar OsgEarthNet.uav[18] utilizationEnergyOverdrawMission 0
scalar OsgEarthNet.uav[18] utilizationEnergyOverdrawMaintenance 0
scalar OsgEarthNet.uav[18] utilizationCountMissions 27
scalar OsgEarthNet.uav[18] utilizationCountManeuversMission 393
scalar OsgEarthNet.uav[18] utilizationCountManeuversMaintenance 54
scalar OsgEarthNet.uav[18] utilizationCountChargeState 27
scalar OsgEarthNet.uav[18] utilizationCountOverdrawnAfterMission 0
scalar OsgEarthNet.uav[18] utilizationCountIdleState 28
scalar OsgEarthNet.uav[18] utilizationFail 0
scalar OsgEarthNet.uav[18] simulationTime 259200
scalar OsgEarthNet.uav[19] utilizationSecMission 500
scalar OsgEarthNet.uav[19] utilizationSecMaintenance 363.8841636065
scalar OsgEarthNet.uav[19] utilizationSecCharge 3460
scalar OsgEarthNet.uav[19] utilizationSecIdle 254876.11483639
scalar OsgEarthNet.uav[19] utilizationEnergyMission 2463.5048789978
scalar OsgEarthNet.uav[19] utilizationEnergyMaintenance 1895.3744010925
scalar OsgEarthNet.uav[19] utilizationEnergyCharge 4551.751953125
scalar OsgEarthNet.uav[19] utilizationEnergyOverdrawMission 0
scalar OsgEarthNet.uav[19] utilizationEnergyOverdrawMaintenance 0
scalar OsgEarthNet.uav[19] utilizationCountMissions 1
scalar OsgEarthNet.uav[19] utilizationCountManeuversMission 25
scalar OsgEarthNet.uav[19] utilizationCountManeuversMaintenance 2
scalar OsgEarthNet.uav[19] utilizationCountChargeState 1
scalar OsgEarthNet.uav[19] utilizationCountOverdrawnAfterMission 0
scalar OsgEarthNet.uav[19] utilizationCountIdleState 2
scalar OsgEarthNet.uav[19] utilizationFail 0
scalar OsgEarthNet.uav[19] simulationTime 259200
scalar OsgEarthNet.uav[20] utilizationSecMission 26681.615494613
scalar OsgEarthNet.uav[20] utilizationSecMaintenance 23870.846307806
scalar OsgEarthNet.uav[20] utilizationSecCharge 181145.53419758
scalar OsgEarthNet.uav[20] utilizationSecIdle 27502.003
scalar OsgEarthNet.uav[20] utilizationEnergyMission 127727.93602753
scalar OsgEarthNet.uav[20] utilizationEnergyMaintenance 111616.08995438
scalar OsgEarthNet.uav[20] utilizationEnergyCharge 239215.40722656
scalar OsgEarthNet.uav[20] utilizationEnergyOverdrawMission 0
scalar OsgEarthNet.uav[20] utilizationEnergyOverdrawMaintenance 0
scalar OsgEarthNet.uav[20] utilizationCountMissions 53
scalar OsgEarthNet.uav[20] utilizationCountManeuversMission 727
scalar OsgEarthNet.uav[20] utilizationCountManeuversMaintenance 106
scalar OsgEarthNet.uav[20] utilizationCountChargeState 53
scalar OsgEarthNet.uav[20] utilizationCountOverdrawnAfterMission 0
scalar OsgEarthNet.uav[20] utilizationCountIdleState 53
scalar OsgEarthNet.uav[20] utilizationFail 0
scalar OsgEarthNet.uav[20] simulationTime 259200
scalar OsgEarthNet.uav[21] utilizationSecMission 20023.250500544
scalar OsgEarthNet.uav[21] utilizationSecMaintenance 20415.014532602
scalar OsgEarthNet.uav[21] utilizationSecCharge 147060
scalar OsgEarthNet.uav[21] utilizationSecIdle 71701.733966854
scalar OsgEarthNet.uav[21] utilizationEnergyMission 99236.809276581
scalar OsgEarthNet.uav[21] utilizationEnergyMaintenance 94691.064815521
scalar OsgEarthNet.uav[21] utilizationEnergyCharge 191437.79931641
scalar OsgEarthNet.uav[21] utilizationEnergyOverdrawMission 0
scalar OsgEarthNet.uav[21] utilizationEnergyOverdrawMaintenance 0
scalar OsgEarthNet.uav[21] utilizationCountMissions 44
scalar OsgEarthNet.uav[21] utilizationCountManeuversMission 758
scalar OsgEarthNet.uav[21] utilizationCountManeuversMaintenance 88
scalar OsgEarthNet.uav[21] utilizationCountChargeState 44
scalar OsgEarthNet.uav[21] utilizationCountOverdrawnAfterMission 0
scalar OsgEarthNet.uav[21] utilizationCountIdleState 45
scalar OsgEarthNet.uav[21] utilizationFail 0
scalar OsgEarthNet.uav[21] simulationTime 259200
scalar OsgEarthNet.uav[22] utilizationSecMission 25406.950286694
scalar OsgEarthNet.uav[22] utilizationSecMaintenance 18988.449879301
scalar OsgEarthNet.uav[22] utilizationSecCharge 157012.59283401
scalar OsgEarthNet.uav[22] utilizationSecIdle 57792.006
scalar OsgEarthNet.uav[22] utilizationEnergyMission 119788.33097839
scalar OsgEarthNet.uav[22] utilizationEnergyMaintenance 88017.651790619
scalar OsgEarthNet.uav[22] utilizationEnergyCharge 207335.53466797
scalar OsgEarthNet.uav[22] utilizationEnergyOverdrawMission 0
scalar OsgEarthNet.uav[22] utilizationEnergyOverdrawMaintenance 0
scalar OsgEarthNet.uav[22] utilizationCountMissions 46
scalar OsgEarthNet.uav[22] utilizationCountManeuversMission 637
scalar OsgEarthNet.uav[22] utilizationCountManeuversMaintenance 92
scalar OsgEarthNet.uav[22] utilizationCountChargeState 46
scalar OsgEarthNet.uav[22] utilizationCountOverdrawnAfterMission 0
scalar OsgEarthNet.uav[22] utilizationCountIdleState 46
scalar OsgEarthNet.uav[22] utilizationFail 0
scalar OsgEarthNet.uav[22] simulationTime 259200
scalar OsgEarthNet.uav[23] utilizationSecMission 26251.524609852
scalar OsgEarthNet.uav[23] utilizationSecMaintenance 25388.405692473
scalar OsgEarthNet.uav[23] utilizationSecCharge 186058.06769768
scalar OsgEarthNet.uav[23] utilizationSecIdle 21502.001
scalar OsgEarthNet.uav[23] utilizationEnergyMission 127137.41643143
scalar OsgEarthNet.uav[23] utilizationEnergyMaintenance 119079.39912796
scalar OsgEarthNet.uav[23] utilizationEnergyCharge 245327.43725586
scalar OsgEarthNet.uav[23] utilizationEnergyOverdrawMission 0
scalar OsgEarthNet.uav[23] utilizationEnergyOverdrawMaintenance 0
scalar OsgEarthNet.uav[23] utilizationCountMissions 55
scalar OsgEarthNet.uav[23] utilizationCountManeuversMission 794
scalar OsgEarthNet.uav[23] utilizationCountManeuversMaintenance 110
scalar OsgEarthNet.uav[23] utilizationCountChargeState 55
scalar OsgEarthNet.uav[23] utilizationCountOverdrawnAfterMission 0
scalar OsgEarthNet.uav[23] utilizationCountIdleState 55
scalar OsgEarthNet.uav[23] utilizationFail 0
scalar OsgEarthNet.uav[23] simulationTime 259200
scalar OsgEarthNet.uav[24] utilizationSecMission 28820.013980932
scalar OsgEarthNet.uav[24] utilizationSecMaintenance 20067.929384517
scalar OsgEarthNet.uav[24] utilizationSecCharge 173320.05063455
scalar OsgEarthNet.uav[24] utilizationSecIdle 36992.005
scalar OsgEarthNet.uav[24] utilizationEnergyMission 138830.31092834
scalar OsgEarthNet.uav[24] utilizationEnergyMaintenance 93436.175712585
scalar OsgEarthNet.uav[24] utilizationEnergyCharge 227162.87243652
scalar OsgEarthNet.uav[24] utilizationEnergyOverdrawMission 0
scalar OsgEarthNet.uav[24] utilizationEnergyOverdrawMaintenance 0
scalar OsgEarthNet.uav[24] utilizationCountMissions 52
scalar OsgEarthNet.uav[24] utilizationCountManeuversMission 819
scalar OsgEarthNet.uav[24] utilizationCountManeuversMaintenance 104
scalar OsgEarthNet.uav[24] utilizationCountChargeState 52
scalar OsgEarthNet.uav[24] utilizationCountOverdrawnAfterMission 0
scalar OsgEarthNet.uav[24] utilizationCountIdleState 52
scalar OsgEarthNet.uav[24] utilizationFail 0
scalar OsgEarthNet.uav[24] simulationTime 259200
scalar OsgEarthNet.uav[25] utilizationSecMission 27044.573148178
scalar OsgEarthNet.uav[25] utilizationSecMaintenance 23833.424851822
scalar OsgEarthNet.uav[25] utilizationSecCharge 181730
scalar OsgEarthNet.uav[25] utilizationSecIdle 26592.001
scalar OsgEarthNet.uav[25] utilizationEnergyMission 131484.43824387
scalar OsgEarthNet.uav[25] utilizationEnergyMaintenance 112760.96319307
scalar OsgEarthNet.uav[25] utilizationEnergyCharge 238370.84301758
scalar OsgEarthNet.uav[25] utilizationEnergyOverdrawMission 0
scalar OsgEarthNet.uav[25] utilizationEnergyOverdrawMaintenance 448.32427978516
scalar OsgEarthNet.uav[25] utilizationCountMissions 54
scalar OsgEarthNet.uav[25] utilizationCountManeuversMission 852
scalar OsgEarthNet.uav[25] utilizationCountManeuversMaintenance 108
scalar OsgEarthNet.uav[25] utilizationCountChargeState 53
scalar OsgEarthNet.uav[25] utilizationCountOverdrawnAfterMission 1
scalar OsgEarthNet.uav[25] utilizationCountIdleState 54
scalar OsgEarthNet.uav[25] utilizationFail 0
scalar OsgEarthNet.uav[25] simulationTime 259200
scalar OsgEarthNet.uav[26] utilizationSecMission 24578.937089906
scalar OsgEarthNet.uav[26] utilizationSecMaintenance 23670.556095573
scalar OsgEarthNet.uav[26] utilizationSecCharge 171788.49881452
scalar OsgEarthNet.uav[26] utilizationSecIdle 39162.007
scalar OsgEarthNet.uav[26] utilizationEnergyMission 119772.50193024
scalar OsgEarthNet.uav[26] utilizationEnergyMaintenance 110412.38863754
scalar OsgEarthNet.uav[26] utilizationEnergyCharge 225389.95019531
scalar OsgEarthNet.uav[26] utilizationEnergyOverdrawMission 0
scalar OsgEarthNet.uav[26] utilizationEnergyOverdrawMaintenance 0
scalar OsgEarthNet.uav[26] utilizationCountMissions 51
scalar OsgEarthNet.uav[26] utilizationCountManeuversMission 740
scalar OsgEarthNet.uav[26] utilizationCountManeuversMaintenance 102
scalar OsgEarthNet.uav[26] utilizationCountChargeState 51
scalar OsgEarthNet.uav[26] utilizationCountOverdrawnAfterMission 0
scalar OsgEarthNet.uav[26] utilizationCountIdleState 51
scalar OsgEarthNet.uav[26] utilizationFail 0
scalar OsgEarthNet.uav[26] simulationTime 259200
scalar OsgEarthNet.uav[27] utilizationSecMission 26445.650328559
scalar OsgEarthNet.uav[27] utilizationSecMaintenance 21674.050405622
scalar OsgEarthNet.uav[27] utilizationSecCharge 176248.29226582
scalar OsgEarthNet.uav[27] utilizationSecIdle 34832.006
scalar OsgEarthNet.uav[27] utilizationEnergyMission 131292.42325974
scalar OsgEarthNet.uav[27] utilizationEnergyMaintenance 101366.59199524
scalar OsgEarthNet.uav[27] utilizationEnergyCharge 232379.64355469
scalar OsgEarthNet.uav[27] utilizationEnergyOverdrawMission 0
scalar OsgEarthNet.uav[27] utilizationEnergyOverdrawMaintenance 0
scalar OsgEarthNet.uav[27] utilizationCountMissions 51
scalar OsgEarthNet.uav[27] utilizationCountManeuversMission 930
scalar OsgEarthNet.uav[27] utilizationCountManeuversMaintenance 102
scalar OsgEarthNet.uav[27] utilizationCountChargeState 51
scalar OsgEarthNet.uav[27] utilizationCountOverdrawnAfterMission 0
scalar OsgEarthNet.uav[27] utilizationCountIdleState 51
scalar OsgEarthNet.uav[27] utilizationFail 0
scalar OsgEarthNet.uav[27] simulationTime 259200
scalar OsgEarthNet.uav[28] utilizationSecMission 25950.193858237
scalar OsgEarthNet.uav[28] utilizationSecMaintenance 22605.044828003
scalar OsgEarthNet.uav[28] utilizationSecCharge 173472.75731376
scalar OsgEarthNet.uav[28] utilizationSecIdle 37172.003
scalar OsgEarthNet.uav[28] utilizationEnergyMission 128233.22452164
scalar OsgEarthNet.uav[28] utilizationEnergyMaintenance 105363.48586655
scalar OsgEarthNet.uav[28] utilizationEnergyCharge 227104.69775391
scalar OsgEarthNet.uav[28] utilizationEnergyOverdrawMission 0
scalar OsgEarthNet.uav[28] utilizationEnergyOverdrawMaintenance 0
scalar OsgEarthNet.uav[28] utilizationCountMissions 52
scalar OsgEarthNet.uav[28] utilizationCountManeuversMission 895
scalar OsgEarthNet.uav[28] utilizationCountManeuversMaintenance 104
scalar OsgEarthNet.uav[28] utilizationCountChargeState 52
scalar OsgEarthNet.uav[28] utilizationCountOverdrawnAfterMission 0
scalar OsgEarthNet.uav[28] utilizationCountIdleState 52
scalar OsgEarthNet.uav[28] utilizationFail 0
scalar OsgEarthNet.uav[28] simulationTime 259200
scalar OsgEarthNet.uav[29] utilizationSecMission 22171.351406784
scalar OsgEarthNet.uav[29] utilizationSecMaintenance 21306.825858881
scalar OsgEarthNet.uav[29] utilizationSecCharge 156070
scalar OsgEarthNet.uav[29] utilizationSecIdle 59651.821734335
scalar OsgEarthNet.uav[29] utilizationEnergyMission 106687.4870224
scalar OsgEarthNet.uav[29] utilizationEnergyMaintenance 99667.162023227
scalar OsgEarthNet.uav[29] utilizationEnergyCharge 203906.39916992
scalar OsgEarthNet.uav[29] utilizationEnergyOverdrawMission 0
scalar OsgEarthNet.uav[29] utilizationEnergyOverdrawMaintenance 0
scalar OsgEarthNet.uav[29] utilizationCountMissions 47
scalar OsgEarthNet.uav[29] utilizationCountManeuversMission 758
scalar OsgEarthNet.uav[29] utilizationCountManeuversMaintenance 94
scalar OsgEarthNet.uav[29] utilizationCountChargeState 46
scalar OsgEarthNet.uav[29] utilizationCountOverdrawnAfterMission 0
scalar OsgEarthNet.uav[29] utilizationCountIdleState 47
scalar OsgEarthNet.uav[29] utilizationFail 0
scalar OsgEarthNet.uav[29] simulationTime 259200
scalar OsgEarthNet.uav[30] utilizationSecMission 650.68693590098
scalar OsgEarthNet.uav[30] utilizationSecMaintenance 350.31285707965
scalar OsgEarthNet.uav[30] utilizationSecCharge 3370
scalar OsgEarthNet.uav[30] utilizationSecIdle 254828.99920702
scalar OsgEarthNet.uav[30] utilizationEnergyMission 2913.9712219238
scalar OsgEarthNet.uav[30] utilizationEnergyMaintenance 1514.739402771
scalar OsgEarthNet.uav[30] utilizationEnergyCharge 4428.7060546875
scalar OsgEarthNet.uav[30] utilizationEnergyOverdrawMission 0
scalar OsgEarthNet.uav[30] utilizationEnergyOverdrawMaintenance 0
scalar OsgEarthNet.uav[30] utilizationCountMissions 1
scalar OsgEarthNet.uav[30] utilizationCountManeuversMission 9
scalar OsgEarthNet.uav[30] utilizationCountManeuversMaintenance 2
scalar OsgEarthNet.uav[30] utilizationCountChargeState 1
scalar OsgEarthNet.uav[30] utilizationCountOverdrawnAfterMission 0
scalar OsgEarthNet.uav[30] utilizationCountIdleState 2
scalar OsgEarthNet.uav[30] utilizationFail 0
scalar OsgEarthNet.uav[30] simulationTime 259200
scalar OsgEarthNet.uav[31] utilizationSecMission 28452.329483959
scalar OsgEarthNet.uav[31] utilizationSecMaintenance 23018.815966768
scalar OsgEarthNet.uav[31] utilizationSecCharge 184366.85354927
scalar OsgEarthNet.uav[31] utilizationSecIdle 23362
scalar OsgEarthNet.uav[31] utilizationEnergyMission 138039.83135605
scalar OsgEarthNet.uav[31] utilizationEnergyMaintenance 106526.1544075
scalar OsgEarthNet.uav[31] utilizationEnergyCharge 242431.2890625
scalar OsgEarthNet.uav[31] utilizationEnergyOverdrawMission 0
scalar OsgEarthNet.uav[31] utilizationEnergyOverdrawMaintenance 0
scalar OsgEarthNet.uav[31] utilizationCountMissions 54
scalar OsgEarthNet.uav[31] utilizationCountManeuversMission 769
scalar OsgEarthNet.uav[31] utilizationCountManeuversMaintenance 108
scalar OsgEarthNet.uav[31] utilizationCountChargeState 54
scalar OsgEarthNet.uav[31] utilizationCountOverdrawnAfterMission 0
scalar OsgEarthNet.uav[31] utilizationCountIdleState 54
scalar OsgEarthNet.uav[31] utilizationFail 0
scalar OsgEarthNet.uav[31] simulationTime 259200
scalar OsgEarthNet.uav[32] utilizationSecMission 11011.416212087
scalar OsgEarthNet.uav[32] utilizationSecMaintenance 10410.168436111
scalar OsgEarthNet.uav[32] utilizationSecCharge 76174.953309027
scalar OsgEarthNet.uav[32] utilizationSecIdle 161603.46104278
scalar OsgEarthNet.uav[32] utilizationEnergyMission 54105.174999237
scalar OsgEarthNet.uav[32] utilizationEnergyMaintenance 47883.560474396
scalar OsgEarthNet.uav[32] utilizationEnergyCharge 100578.63891602
scalar OsgEarthNet.uav[32] utilizationEnergyOverdrawMission 0
scalar OsgEarthNet.uav[32] utilizationEnergyOverdrawMaintenance 0
scalar OsgEarthNet.uav[32] utilizationCountMissions 23
scalar OsgEarthNet.uav[32] utilizationCountManeuversMission 315
scalar OsgEarthNet.uav[32] utilizationCountManeuversMaintenance 46
scalar OsgEarthNet.uav[32] utilizationCountChargeState 23
scalar OsgEarthNet.uav[32] utilizationCountOverdrawnAfterMission 0
scalar OsgEarthNet.uav[32] utilizationCountIdleState 23
scalar OsgEarthNet.uav[32] utilizationFail 0
scalar OsgEarthNet.uav[32] simulationTime 259200
scalar OsgEarthNet.uav[33] utilizationSecMission 21647.01476084
scalar OsgEarthNet.uav[33] utilizationSecMaintenance 15530.97123916
scalar OsgEarthNet.uav[33] utilizationSecCharge 131940
scalar OsgEarthNet.uav[33] utilizationSecIdle 90082.013
scalar OsgEarthNet.uav[33] utilizationEnergyMission 102761.01065445
scalar OsgEarthNet.uav[33] utilizationEnergyMaintenance 72706.977386039
scalar OsgEarthNet.uav[33] utilizationEnergyCharge 173962.05664062
scalar OsgEarthNet.uav[33] utilizationEnergyOverdrawMission 0
scalar OsgEarthNet.uav[33] utilizationEnergyOverdrawMaintenance 27.808368682861
scalar OsgEarthNet.uav[33] utilizationCountMissions 39
scalar OsgEarthNet.uav[33] utilizationCountManeuversMission 647
scalar OsgEarthNet.uav[33] utilizationCountManeuversMaintenance 78
scalar OsgEarthNet.uav[33] utilizationCountChargeState 38
scalar OsgEarthNet.uav[33] utilizationCountOverdrawnAfterMission 1
scalar OsgEarthNet.uav[33] utilizationCountIdleState 39
scalar OsgEarthNet.uav[33] utilizationFail 0
scalar OsgEarthNet.uav[33] simulationTime 259200
scalar OsgEarthNet.uav[34] utilizationSecMission 18620.348024391
scalar OsgEarthNet.uav[34] utilizationSecMaintenance 17759.898919665
scalar OsgEarthNet.uav[34] utilizationSecCharge 131840
scalar OsgEarthNet.uav[34] utilizationSecIdle 90979.752055944
scalar OsgEarthNet.uav[34] utilizationEnergyMission 89303.299728394
scalar OsgEarthNet.uav[34] utilizationEnergyMaintenance 82474.953990936
scalar OsgEarthNet.uav[34] utilizationEnergyCharge 172116.73071289
scalar OsgEarthNet.uav[34] utilizationEnergyOverdrawMission 0
scalar OsgEarthNet.uav[34] utilizationEnergyOverdrawMaintenance 0
scalar OsgEarthNet.uav[34] utilizationCountMissions 39
scalar OsgEarthNet.uav[34] utilizationCountManeuversMission 520
scalar OsgEarthNet.uav[34] utilizationCountManeuversMaintenance 78
scalar OsgEarthNet.uav[34] utilizationCountChargeState 39
scalar OsgEarthNet.uav[34] utilizationCountOverdrawnAfterMission 0
scalar OsgEarthNet.uav[34] utilizationCountIdleState 40
scalar OsgEarthNet.uav[34] utilizationFail 0
scalar OsgEarthNet.uav[34] simulationTime 259200
scalar OsgEarthNet.uav[35] utilizationSecMission 26366.735942776
scalar OsgEarthNet.uav[35] utilizationSecMaintenance 23014.087946813
scalar OsgEarthNet.uav[35] utilizationSecCharge 178920
scalar OsgEarthNet.uav[35] utilizationSecIdle 30899.175110411
scalar OsgEarthNet.uav[35] utilizationEnergyMission 129546.67680293
scalar OsgEarthNet.uav[35] utilizationEnergyMaintenance 108292.53047943
scalar OsgEarthNet.uav[35] utilizationEnergyCharge 233939.47094727
scalar OsgEarthNet.uav[35] utilizationEnergyOverdrawMission 0
scalar OsgEarthNet.uav[35] utilizationEnergyOverdrawMaintenance 0
scalar OsgEarthNet.uav[35] utilizationCountMissions 53
scalar OsgEarthNet.uav[35] utilizationCountManeuversMission 870
scalar OsgEarthNet.uav[35] utilizationCountManeuversMaintenance 107
scalar OsgEarthNet.uav[35] utilizationCountChargeState 53
scalar OsgEarthNet.uav[35] utilizationCountOverdrawnAfterMission 0
scalar OsgEarthNet.uav[35] utilizationCountIdleState 54
scalar OsgEarthNet.uav[35] utilizationFail 0
scalar OsgEarthNet.uav[35] simulationTime 259200
scalar OsgEarthNet.uav[36] utilizationSecMission 6818.5193141666
scalar OsgEarthNet.uav[36] utilizationSecMaintenance 5931.9706257686
scalar OsgEarthNet.uav[36] utilizationSecCharge 43648.5578044
scalar OsgEarthNet.uav[36] utilizationSecIdle 202800.95125566
scalar OsgEarthNet.uav[36] utilizationEnergyMission 33163.382873535
scalar OsgEarthNet.uav[36] utilizationEnergyMaintenance 27279.401737213
scalar OsgEarthNet.uav[36] utilizationEnergyCharge 57083.864990234
scalar OsgEarthNet.uav[36] utilizationEnergyOverdrawMission 0
scalar OsgEarthNet.uav[36] utilizationEnergyOverdrawMaintenance 0
scalar OsgEarthNet.uav[36] utilizationCountMissions 14
scalar OsgEarthNet.uav[36] utilizationCountManeuversMission 235
scalar OsgEarthNet.uav[36] utilizationCountManeuversMaintenance 28
scalar OsgEarthNet.uav[36] utilizationCountChargeState 14
scalar OsgEarthNet.uav[36] utilizationCountOverdrawnAfterMission 0
scalar OsgEarthNet.uav[36] utilizationCountIdleState 14
scalar OsgEarthNet.uav[36] utilizationFail 0
scalar OsgEarthNet.uav[36] simulationTime 259200
scalar OsgEarthNet.uav[37] utilizationSecMission 27334.981991789
scalar OsgEarthNet.uav[37] utilizationSecMaintenance 24056.849186761
scalar OsgEarthNet.uav[37] utilizationSecCharge 183466.16782145
scalar OsgEarthNet.uav[37] utilizationSecIdle 24342
scalar OsgEarthNet.uav[37] utilizationEnergyMission 129835.80698395
scalar OsgEarthNet.uav[37] utilizationEnergyMaintenance 111643.04705048
scalar OsgEarthNet.uav[37] utilizationEnergyCharge 241769.25634766
scalar OsgEarthNet.uav[37] utilizationEnergyOverdrawMission 0
scalar OsgEarthNet.uav[37] utilizationEnergyOverdrawMaintenance 24.96099281311
scalar OsgEarthNet.uav[37] utilizationCountMissions 54
scalar OsgEarthNet.uav[37] utilizationCountManeuversMission 822
scalar OsgEarthNet.uav[37] utilizationCountManeuversMaintenance 107
scalar OsgEarthNet.uav[37] utilizationCountChargeState 54
scalar OsgEarthNet.uav[37] utilizationCountOverdrawnAfterMission 1
scalar OsgEarthNet.uav[37] utilizationCountIdleState 54
scalar OsgEarthNet.uav[37] utilizationFail 0
scalar OsgEarthNet.uav[37] simulationTime 259200
scalar OsgEarthNet.uav[38] utilizationSecMission 19491.282676554
scalar OsgEarthNet.uav[38] utilizationSecMaintenance 17028.010215117
scalar OsgEarthNet.uav[38] utilizationSecCharge 133438.70110833
scalar OsgEarthNet.uav[38] utilizationSecIdle 89242.005
scalar OsgEarthNet.uav[38] utilizationEnergyMission 95747.230995178
scalar OsgEarthNet.uav[38] utilizationEnergyMaintenance 79403.959140778
scalar OsgEarthNet.uav[38] utilizationEnergyCharge 175823.22729492
scalar OsgEarthNet.uav[38] utilizationEnergyOverdrawMission 0
scalar OsgEarthNet.uav[38] utilizationEnergyOverdrawMaintenance 0
scalar OsgEarthNet.uav[38] utilizationCountMissions 39
scalar OsgEarthNet.uav[38] utilizationCountManeuversMission 674
scalar OsgEarthNet.uav[38] utilizationCountManeuversMaintenance 78
scalar OsgEarthNet.uav[38] utilizationCountChargeState 39
scalar OsgEarthNet.uav[38] utilizationCountOverdrawnAfterMission 0
scalar OsgEarthNet.uav[38] utilizationCountIdleState 39
scalar OsgEarthNet.uav[38] utilizationFail 0
scalar OsgEarthNet.uav[38] simulationTime 259200
scalar OsgEarthNet.uav[39] utilizationSecMission 26022.432940862
scalar OsgEarthNet.uav[39] utilizationSecMaintenance 19921.865733687
scalar OsgEarthNet.uav[39] utilizationSecCharge 164183.69132545
scalar OsgEarthNet.uav[39] utilizationSecIdle 49072.009
scalar OsgEarthNet.uav[39] utilizationEnergyMission 125506.67612457
scalar OsgEarthNet.uav[39] utilizationEnergyMaintenance 92345.481887817
scalar OsgEarthNet.uav[39] utilizationEnergyCharge 215707.30236816
scalar OsgEarthNet.uav[39] utilizationEnergyOverdrawMission 0
scalar OsgEarthNet.uav[39] utilizationEnergyOverdrawMaintenance 0
scalar OsgEarthNet.uav[39] utilizationCountMissions 49
scalar OsgEarthNet.uav[39] utilizationCountManeuversMission 761
scalar OsgEarthNet.uav[39] utilizationCountManeuversMaintenance 98
scalar OsgEarthNet.uav[39] utilizationCountChargeState 49
scalar OsgEarthNet.uav[39] utilizationCountOverdrawnAfterMission 0
scalar OsgEarthNet.uav[39] utilizationCountIdleState 49
scalar OsgEarthNet.uav[39] utilizationFail 0
scalar OsgEarthNet.uav[39] simulationTime 259200
scalar OsgEarthNet.uav[40] utilizationSecMission 27439.935477232
scalar OsgEarthNet.uav[40] utilizationSecMaintenance 22438.058522768
scalar OsgEarthNet.uav[40] utilizationSecCharge 179200
scalar OsgEarthNet.uav[40] utilizationSecIdle 30122.005
scalar OsgEarthNet.uav[40] utilizationEnergyMission 135802.95711517
scalar OsgEarthNet.uav[40] utilizationEnergyMaintenance 105006.55062637
scalar OsgEarthNet.uav[40] utilizationEnergyCharge 234947.62231445
scalar OsgEarthNet.uav[40] utilizationEnergyOverdrawMission 0
scalar OsgEarthNet.uav[40] utilizationEnergyOverdrawMaintenance 0
scalar OsgEarthNet.uav[40] utilizationCountMissions 54
scalar OsgEarthNet.uav[40] utilizationCountManeuversMission 867
scalar OsgEarthNet.uav[40] utilizationCountManeuversMaintenance 108
scalar OsgEarthNet.uav[40] utilizationCountChargeState 53
scalar OsgEarthNet.uav[40] utilizationCountOverdrawnAfterMission 0
scalar OsgEarthNet.uav[40] utilizationCountIdleState 53
scalar OsgEarthNet.uav[40] utilizationFail 0
scalar OsgEarthNet.uav[40] simulationTime 259200
scalar OsgEarthNet.uav[41] utilizationSecMission 25563.626210967
scalar OsgEarthNet.uav[41] utilizationSecMaintenance 23642.680539211
scalar OsgEarthNet.uav[41] utilizationSecCharge 176991.68824982
scalar OsgEarthNet.uav[41] utilizationSecIdle 33002.004
scalar OsgEarthNet.uav[41] utilizationEnergyMission 124304.94676971
scalar OsgEarthNet.uav[41] utilizationEnergyMaintenance 110157.18922043
scalar OsgEarthNet.uav[41] utilizationEnergyCharge 231701.54211426
scalar OsgEarthNet.uav[41] utilizationEnergyOverdrawMission 0
scalar OsgEarthNet.uav[41] utilizationEnergyOverdrawMaintenance 0
scalar OsgEarthNet.uav[41] utilizationCountMissions 53
scalar OsgEarthNet.uav[41] utilizationCountManeuversMission 797
scalar OsgEarthNet.uav[41] utilizationCountManeuversMaintenance 106
scalar OsgEarthNet.uav[41] utilizationCountChargeState 53
scalar OsgEarthNet.uav[41] utilizationCountOverdrawnAfterMission 0
scalar OsgEarthNet.uav[41] utilizationCountIdleState 53
scalar OsgEarthNet.uav[41] utilizationFail 0
scalar OsgEarthNet.uav[41] simulationTime 259200
scalar OsgEarthNet.uav[42] utilizationSecMission 25175.740890597
scalar OsgEarthNet.uav[42] utilizationSecMaintenance 21712.253109403
scalar OsgEarthNet.uav[42] utilizationSecCharge 170760
scalar OsgEarthNet.uav[42] utilizationSecIdle 41552.005
scalar OsgEarthNet.uav[42] utilizationEnergyMission 123298.45473099
scalar OsgEarthNet.uav[42] utilizationEnergyMaintenance 102182.5601975
scalar OsgEarthNet.uav[42] utilizationEnergyCharge 223468.65869141
scalar OsgEarthNet.uav[42] utilizationEnergyOverdrawMission 0
scalar OsgEarthNet.uav[42] utilizationEnergyOverdrawMaintenance 0
scalar OsgEarthNet.uav[42] utilizationCountMissions 50
scalar OsgEarthNet.uav[42] utilizationCountManeuversMission 843
scalar OsgEarthNet.uav[42] utilizationCountManeuversMaintenance 101
scalar OsgEarthNet.uav[42] utilizationCountChargeState 50
scalar OsgEarthNet.uav[42] utilizationCountOverdrawnAfterMission 0
scalar OsgEarthNet.uav[42] utilizationCountIdleState 51
scalar OsgEarthNet.uav[42] utilizationFail 0
scalar OsgEarthNet.uav[42] simulationTime 259200
scalar OsgEarthNet.uav[43] utilizationSecMission 17541.999813441
scalar OsgEarthNet.uav[43] utilizationSecMaintenance 15477.048930894
scalar OsgEarthNet.uav[43] utilizationSecCharge 117350
scalar OsgEarthNet.uav[43] utilizationSecIdle 108830.95025566
scalar OsgEarthNet.uav[43] utilizationEnergyMission 85409.435081482
scalar OsgEarthNet.uav[43] utilizationEnergyMaintenance 72266.578476975
scalar OsgEarthNet.uav[43] utilizationEnergyCharge 154258.16113281
scalar OsgEarthNet.uav[43] utilizationEnergyOverdrawMission 0
scalar OsgEarthNet.uav[43] utilizationEnergyOverdrawMaintenance 69.927154541016
scalar OsgEarthNet.uav[43] utilizationCountMissions 35
scalar OsgEarthNet.uav[43] utilizationCountManeuversMission 593
scalar OsgEarthNet.uav[43] utilizationCountManeuversMaintenance 70
scalar OsgEarthNet.uav[43] utilizationCountChargeState 34
scalar OsgEarthNet.uav[43] utilizationCountOverdrawnAfterMission 1
scalar OsgEarthNet.uav[43] utilizationCountIdleState 35
scalar OsgEarthNet.uav[43] utilizationFail 0
scalar OsgEarthNet.uav[43] simulationTime 259200
scalar OsgEarthNet.uav[44] utilizationSecMission 26954.48516338
scalar OsgEarthNet.uav[44] utilizationSecMaintenance 24608.085027756
scalar OsgEarthNet.uav[44] utilizationSecCharge 182875.42680886
scalar OsgEarthNet.uav[44] utilizationSecIdle 24762.002
scalar OsgEarthNet.uav[44] utilizationEnergyMission 131088.02477646
scalar OsgEarthNet.uav[44] utilizationEnergyMaintenance 114484.8968277
scalar OsgEarthNet.uav[44] utilizationEnergyCharge 240640.9465332
scalar OsgEarthNet.uav[44] utilizationEnergyOverdrawMission 0
scalar OsgEarthNet.uav[44] utilizationEnergyOverdrawMaintenance 0
scalar OsgEarthNet.uav[44] utilizationCountMissions 54
scalar OsgEarthNet.uav[44] utilizationCountManeuversMission 831
scalar OsgEarthNet.uav[44] utilizationCountManeuversMaintenance 108
scalar OsgEarthNet.uav[44] utilizationCountChargeState 54
scalar OsgEarthNet.uav[44] utilizationCountOverdrawnAfterMission 0
scalar OsgEarthNet.uav[44] utilizationCountIdleState 54
scalar OsgEarthNet.uav[44] utilizationFail 0
scalar OsgEarthNet.uav[44] simulationTime 259200
scalar OsgEarthNet.uav[45] utilizationSecMission 19221.36147276
scalar OsgEarthNet.uav[45] utilizationSecMaintenance 15543.874907998
scalar OsgEarthNet.uav[45] utilizationSecCharge 125990
scalar OsgEarthNet.uav[45] utilizationSecIdle 98444.762619242
scalar OsgEarthNet.uav[45] utilizationEnergyMission 92100.147994995
scalar OsgEarthNet.uav[45] utilizationEnergyMaintenance 72350.659389496
scalar OsgEarthNet.uav[45] utilizationEnergyCharge 164866.77319336
scalar OsgEarthNet.uav[45] utilizationEnergyOverdrawMission 0
scalar OsgEarthNet.uav[45] utilizationEnergyOverdrawMaintenance 0
scalar OsgEarthNet.uav[45] utilizationCountMissions 37
scalar OsgEarthNet.uav[45] utilizationCountManeuversMission 529
scalar OsgEarthNet.uav[45] utilizationCountManeuversMaintenance 74
scalar OsgEarthNet.uav[45] utilizationCountChargeState 37
scalar OsgEarthNet.uav[45] utilizationCountOverdrawnAfterMission 0
scalar OsgEarthNet.uav[45] utilizationCountIdleState 37
scalar OsgEarthNet.uav[45] utilizationFail 0
scalar OsgEarthNet.uav[45] simulationTime 259200
scalar OsgEarthNet.uav[46] utilizationSecMission 28705.220056392
scalar OsgEarthNet.uav[46] utilizationSecMaintenance 23380.37235708
scalar OsgEarthNet.uav[46] utilizationSecCharge 184482.40658653
scalar OsgEarthNet.uav[46] utilizationSecIdle 22632
scalar OsgEarthNet.uav[46] utilizationEnergyMission 137030.31446075
scalar OsgEarthNet.uav[46] utilizationEnergyMaintenance 108619.65132141
scalar OsgEarthNet.uav[46] utilizationEnergyCharge 243159.27807617
scalar OsgEarthNet.uav[46] utilizationEnergyOverdrawMission 0
scalar OsgEarthNet.uav[46] utilizationEnergyOverdrawMaintenance 0
scalar OsgEarthNet.uav[46] utilizationCountMissions 54
scalar OsgEarthNet.uav[46] utilizationCountManeuversMission 763
scalar OsgEarthNet.uav[46] utilizationCountManeuversMaintenance 107
scalar OsgEarthNet.uav[46] utilizationCountChargeState 54
scalar OsgEarthNet.uav[46] utilizationCountOverdrawnAfterMission 0
scalar OsgEarthNet.uav[46] utilizationCountIdleState 53
scalar OsgEarthNet.uav[46] utilizationFail 0
scalar OsgEarthNet.uav[46] simulationTime 259200
scalar OsgEarthNet.uav[47] utilizationSecMission 9137.4354884439
scalar OsgEarthNet.uav[47] utilizationSecMaintenance 5579.7014615267
scalar OsgEarthNet.uav[47] utilizationSecCharge 54170
scalar OsgEarthNet.uav[47] utilizationSecIdle 190312.86205003
scalar OsgEarthNet.uav[47] utilizationEnergyMission 44788.069850922
scalar OsgEarthNet.uav[47] utilizationEnergyMaintenance 25818.715332031
scalar OsgEarthNet.uav[47] utilizationEnergyCharge 70864.510986328
scalar OsgEarthNet.uav[47] utilizationEnergyOverdrawMission 0
scalar OsgEarthNet.uav[47] utilizationEnergyOverdrawMaintenance 0
scalar OsgEarthNet.uav[47] utilizationCountMissions 16
scalar OsgEarthNet.uav[47] utilizationCountManeuversMission 279
scalar OsgEarthNet.uav[47] utilizationCountManeuversMaintenance 32
scalar OsgEarthNet.uav[47] utilizationCountChargeState 16
scalar OsgEarthNet.uav[47] utilizationCountOverdrawnAfterMission 0
scalar OsgEarthNet.uav[47] utilizationCountIdleState 16
scalar OsgEarthNet.uav[47] utilizationFail 0
scalar OsgEarthNet.uav[47] simulationTime 259200
scalar OsgEarthNet.uav[48] utilizationSecMission 28907.907036317
scalar OsgEarthNet.uav[48] utilizationSecMaintenance 22312.280148596
scalar OsgEarthNet.uav[48] utilizationSecCharge 182997.81181509
scalar OsgEarthNet.uav[48] utilizationSecIdle 24982
scalar OsgEarthNet.uav[48] utilizationEnergyMission 139829.69199152
scalar OsgEarthNet.uav[48] utilizationEnergyMaintenance 103651.80278015
scalar OsgEarthNet.uav[48] utilizationEnergyCharge 241093.51318359
scalar OsgEarthNet.uav[48] utilizationEnergyOverdrawMission 0
scalar OsgEarthNet.uav[48] utilizationEnergyOverdrawMaintenance 0
scalar OsgEarthNet.uav[48] utilizationCountMissions 54
scalar OsgEarthNet.uav[48] utilizationCountManeuversMission 764
scalar OsgEarthNet.uav[48] utilizationCountManeuversMaintenance 107
scalar OsgEarthNet.uav[48] utilizationCountChargeState 54
scalar OsgEarthNet.uav[48] utilizationCountOverdrawnAfterMission 0
scalar OsgEarthNet.uav[48] utilizationCountIdleState 53
scalar OsgEarthNet.uav[48] utilizationFail 0
scalar OsgEarthNet.uav[48] simulationTime 259200
scalar OsgEarthNet.uav[49] utilizationSecMission 27717.34764381
scalar OsgEarthNet.uav[49] utilizationSecMaintenance 22804.907428204
scalar OsgEarthNet.uav[49] utilizationSecCharge 182595.74192799
scalar OsgEarthNet.uav[49] utilizationSecIdle 26082.002
scalar OsgEarthNet.uav[49] utilizationEnergyMission 133014.67977142
scalar OsgEarthNet.uav[49] utilizationEnergyMaintenance 104922.67721939
scalar OsgEarthNet.uav[49] utilizationEnergyCharge 239326.26660156
scalar OsgEarthNet.uav[49] utilizationEnergyOverdrawMission 0
scalar OsgEarthNet.uav[49] utilizationEnergyOverdrawMaintenance 0
scalar OsgEarthNet.uav[49] utilizationCountMissions 54
scalar OsgEarthNet.uav[49] utilizationCountManeuversMission 832
scalar OsgEarthNet.uav[49] utilizationCountManeuversMaintenance 108
scalar OsgEarthNet.uav[49] utilizationCountChargeState 54
scalar OsgEarthNet.uav[49] utilizationCountOverdrawnAfterMission 0
scalar OsgEarthNet.uav[49] utilizationCountIdleState 54
scalar OsgEarthNet.uav[49] utilizationFail 0
scalar OsgEarthNet.uav[49] simulationTime 259200
scalar OsgEarthNet.uav[50] utilizationSecMission 19317.910111448
scalar OsgEarthNet.uav[50] utilizationSecMaintenance 20781.698436833
scalar OsgEarthNet.uav[50] utilizationSecCharge 145550
scalar OsgEarthNet.uav[50] utilizationSecIdle 73550.390451719
scalar OsgEarthNet.uav[50] utilizationEnergyMission 96954.914585113
scalar OsgEarthNet.uav[50] utilizationEnergyMaintenance 95061.120716095
scalar OsgEarthNet.uav[50] utilizationEnergyCharge 190293.12451172
scalar OsgEarthNet.uav[50] utilizationEnergyOverdrawMission 0
scalar OsgEarthNet.uav[50] utilizationEnergyOverdrawMaintenance 0
scalar OsgEarthNet.uav[50] utilizationCountMissions 43
scalar OsgEarthNet.uav[50] utilizationCountManeuversMission 729
scalar OsgEarthNet.uav[50] utilizationCountManeuversMaintenance 86
scalar OsgEarthNet.uav[50] utilizationCountChargeState 43
scalar OsgEarthNet.uav[50] utilizationCountOverdrawnAfterMission 0
scalar OsgEarthNet.uav[50] utilizationCountIdleState 44
scalar OsgEarthNet.uav[50] utilizationFail 0
scalar OsgEarthNet.uav[50] simulationTime 259200
scalar OsgEarthNet.uav[51] utilizationSecMission 25062.962143898
scalar OsgEarthNet.uav[51] utilizationSecMaintenance 21425.008345711
scalar OsgEarthNet.uav[51] utilizationSecCharge 168910.02151039
scalar OsgEarthNet.uav[51] utilizationSecIdle 43802.007
scalar OsgEarthNet.uav[51] utilizationEnergyMission 121470.9991951
scalar OsgEarthNet.uav[51] utilizationEnergyMaintenance 99203.873558044
scalar OsgEarthNet.uav[51] utilizationEnergyCharge 221752.51416016
scalar OsgEarthNet.uav[51] utilizationEnergyOverdrawMission 0
scalar OsgEarthNet.uav[51] utilizationEnergyOverdrawMaintenance 0
scalar OsgEarthNet.uav[51] utilizationCountMissions 50
scalar OsgEarthNet.uav[51] utilizationCountManeuversMission 753
scalar OsgEarthNet.uav[51] utilizationCountManeuversMaintenance 100
scalar OsgEarthNet.uav[51] utilizationCountChargeState 50
scalar OsgEarthNet.uav[51] utilizationCountOverdrawnAfterMission 0
scalar OsgEarthNet.uav[51] utilizationCountIdleState 50
scalar OsgEarthNet.uav[51] utilizationFail 0
scalar OsgEarthNet.uav[51] simulationTime 259200
scalar OsgEarthNet.uav[52] utilizationSecMission 9293.8083507019
scalar OsgEarthNet.uav[52] utilizationSecMaintenance 9722.6972978572
scalar OsgEarthNet.uav[52] utilizationSecCharge 67840
scalar OsgEarthNet.uav[52] utilizationSecIdle 172343.49335144
scalar OsgEarthNet.uav[52] utilizationEnergyMission 44517.510215759
scalar OsgEarthNet.uav[52] utilizationEnergyMaintenance 44301.40404892
scalar OsgEarthNet.uav[52] utilizationEnergyCharge 89515.311523438
scalar OsgEarthNet.uav[52] utilizationEnergyOverdrawMission 0
scalar OsgEarthNet.uav[52] utilizationEnergyOverdrawMaintenance 417.02279663086
scalar OsgEarthNet.uav[52] utilizationCountMissions 20
scalar OsgEarthNet.uav[52] utilizationCountManeuversMission 294
scalar OsgEarthNet.uav[52] utilizationCountManeuversMaintenance 40
scalar OsgEarthNet.uav[52] utilizationCountChargeState 20
scalar OsgEarthNet.uav[52] utilizationCountOverdrawnAfterMission 1
scalar OsgEarthNet.uav[52] utilizationCountIdleState 19
scalar OsgEarthNet.uav[52] utilizationFail 0
scalar OsgEarthNet.uav[52] simulationTime 259200
scalar OsgEarthNet.uav[53] utilizationSecMission 26725.673156697
scalar OsgEarthNet.uav[53] utilizationSecMaintenance 22744.271078869
scalar OsgEarthNet.uav[53] utilizationSecCharge 176948.04876443
scalar OsgEarthNet.uav[53] utilizationSecIdle 32782.006
scalar OsgEarthNet.uav[53] utilizationEnergyMission 130344.33044052
scalar OsgEarthNet.uav[53] utilizationEnergyMaintenance 107006.92660522
scalar OsgEarthNet.uav[53] utilizationEnergyCharge 231599.08666992
scalar OsgEarthNet.uav[53] utilizationEnergyOverdrawMission 0
scalar OsgEarthNet.uav[53] utilizationEnergyOverdrawMaintenance 0
scalar OsgEarthNet.uav[53] utilizationCountMissions 53
scalar OsgEarthNet.uav[53] utilizationCountManeuversMission 939
scalar OsgEarthNet.uav[53] utilizationCountManeuversMaintenance 106
scalar OsgEarthNet.uav[53] utilizationCountChargeState 53
scalar OsgEarthNet.uav[53] utilizationCountOverdrawnAfterMission 0
scalar OsgEarthNet.uav[53] utilizationCountIdleState 53
scalar OsgEarthNet.uav[53] utilizationFail 0
scalar OsgEarthNet.uav[53] simulationTime 259200
scalar OsgEarthNet.uav[54] utilizationSecMission 12335.602786049
scalar OsgEarthNet.uav[54] utilizationSecMaintenance 12019.79646088
scalar OsgEarthNet.uav[54] utilizationSecCharge 88830
scalar OsgEarthNet.uav[54] utilizationSecIdle 146014.59975307
scalar OsgEarthNet.uav[54] utilizationEnergyMission 59585.530818939
scalar OsgEarthNet.uav[54] utilizationEnergyMaintenance 56152.578540802
scalar OsgEarthNet.uav[54] utilizationEnergyCharge 116329.34619141
scalar OsgEarthNet.uav[54] utilizationEnergyOverdrawMission 0
scalar OsgEarthNet.uav[54] utilizationEnergyOverdrawMaintenance 0
scalar OsgEarthNet.uav[54] utilizationCountMissions 26
scalar OsgEarthNet.uav[54] utilizationCountManeuversMission 380
scalar OsgEarthNet.uav[54] utilizationCountManeuversMaintenance 52
scalar OsgEarthNet.uav[54] utilizationCountChargeState 26
scalar OsgEarthNet.uav[54] utilizationCountOverdrawnAfterMission 0
scalar OsgEarthNet.uav[54] utilizationCountIdleState 24
scalar OsgEarthNet.uav[54] utilizationFail 0
scalar OsgEarthNet.uav[54] simulationTime 259200
scalar OsgEarthNet.uav[55] utilizationSecMission 21569.568855185
scalar OsgEarthNet.uav[55] utilizationSecMaintenance 20858.429144815
scalar OsgEarthNet.uav[55] utilizationSecCharge 153380
scalar OsgEarthNet.uav[55] utilizationSecIdle 63392.001
scalar OsgEarthNet.uav[55] utilizationEnergyMission 104664.69369334
scalar OsgEarthNet.uav[55] utilizationEnergyMaintenance 97132.760093689
scalar OsgEarthNet.uav[55] utilizationEnergyCharge 201564.10571289
scalar OsgEarthNet.uav[55] utilizationEnergyOverdrawMission 0
scalar OsgEarthNet.uav[55] utilizationEnergyOverdrawMaintenance 328.73916625977
scalar OsgEarthNet.uav[55] utilizationCountMissions 45
scalar OsgEarthNet.uav[55] utilizationCountManeuversMission 721
scalar OsgEarthNet.uav[55] utilizationCountManeuversMaintenance 91
scalar OsgEarthNet.uav[55] utilizationCountChargeState 45
scalar OsgEarthNet.uav[55] utilizationCountOverdrawnAfterMission 1
scalar OsgEarthNet.uav[55] utilizationCountIdleState 45
scalar OsgEarthNet.uav[55] utilizationFail 0
scalar OsgEarthNet.uav[55] simulationTime 259200
scalar OsgEarthNet.uav[56] utilizationSecMission 20708.236038678
scalar OsgEarthNet.uav[56] utilizationSecMaintenance 18153.414152416
scalar OsgEarthNet.uav[56] utilizationSecCharge 139310
scalar OsgEarthNet.uav[56] utilizationSecIdle 81028.348808906
scalar OsgEarthNet.uav[56] utilizationEnergyMission 99887.904067993
scalar OsgEarthNet.uav[56] utilizationEnergyMaintenance 83675.252040863
scalar OsgEarthNet.uav[56] utilizationEnergyCharge 182824.03491211
scalar OsgEarthNet.uav[56] utilizationEnergyOverdrawMission 0
scalar OsgEarthNet.uav[56] utilizationEnergyOverdrawMaintenance 0
scalar OsgEarthNet.uav[56] utilizationCountMissions 41
scalar OsgEarthNet.uav[56] utilizationCountManeuversMission 557
scalar OsgEarthNet.uav[56] utilizationCountManeuversMaintenance 82
scalar OsgEarthNet.uav[56] utilizationCountChargeState 41
scalar OsgEarthNet.uav[56] utilizationCountOverdrawnAfterMission 0
scalar OsgEarthNet.uav[56] utilizationCountIdleState 41
scalar OsgEarthNet.uav[56] utilizationFail 0
scalar OsgEarthNet.uav[56] simulationTime 259200
scalar OsgEarthNet.uav[57] utilizationSecMission 16254.87281798
scalar OsgEarthNet.uav[57] utilizationSecMaintenance 18355.217321704
scalar OsgEarthNet.uav[57] utilizationSecCharge 123950
scalar OsgEarthNet.uav[57] utilizationSecIdle 100639.90886032
scalar OsgEarthNet.uav[57] utilizationEnergyMission 78188.727371216
scalar OsgEarthNet.uav[57] utilizationEnergyMaintenance 85414.699783325
scalar OsgEarthNet.uav[57] utilizationEnergyCharge 162433.24853516
scalar OsgEarthNet.uav[57] utilizationEnergyOverdrawMission 0
scalar OsgEarthNet.uav[57] utilizationEnergyOverdrawMaintenance 0
scalar OsgEarthNet.uav[57] utilizationCountMissions 37
scalar OsgEarthNet.uav[57] utilizationCountManeuversMission 487
scalar OsgEarthNet.uav[57] utilizationCountManeuversMaintenance 74
scalar OsgEarthNet.uav[57] utilizationCountChargeState 37
scalar OsgEarthNet.uav[57] utilizationCountOverdrawnAfterMission 0
scalar OsgEarthNet.uav[57] utilizationCountIdleState 35
scalar OsgEarthNet.uav[57] utilizationFail 0
scalar OsgEarthNet.uav[57] simulationTime 259200
scalar OsgEarthNet.uav[58] utilizationSecMission 24008.786576739
scalar OsgEarthNet.uav[58] utilizationSecMaintenance 19405.976261144
scalar OsgEarthNet.uav[58] utilizationSecCharge 157160
scalar OsgEarthNet.uav[58] utilizationSecIdle 58625.236162117
scalar OsgEarthNet.uav[58] utilizationEnergyMission 116286.77283096
scalar OsgEarthNet.uav[58] utilizationEnergyMaintenance 90472.176410675
scalar OsgEarthNet.uav[58] utilizationEnergyCharge 204816.3371582
scalar OsgEarthNet.uav[58] utilizationEnergyOverdrawMission 0
scalar OsgEarthNet.uav[58] utilizationEnergyOverdrawMaintenance 0
scalar OsgEarthNet.uav[58] utilizationCountMissions 47
scalar OsgEarthNet.uav[58] utilizationCountManeuversMission 736
scalar OsgEarthNet.uav[58] utilizationCountManeuversMaintenance 94
scalar OsgEarthNet.uav[58] utilizationCountChargeState 47
scalar OsgEarthNet.uav[58] utilizationCountOverdrawnAfterMission 0
scalar OsgEarthNet.uav[58] utilizationCountIdleState 47
scalar OsgEarthNet.uav[58] utilizationFail 0
scalar OsgEarthNet.uav[58] simulationTime 259200
scalar OsgEarthNet.uav[59] utilizationSecMission 22647.187715351
scalar OsgEarthNet.uav[59] utilizationSecMaintenance 21019.178556646
scalar OsgEarthNet.uav[59] utilizationSecCharge 158580
scalar OsgEarthNet.uav[59] utilizationSecIdle 56953.632728003
scalar OsgEarthNet.uav[59] utilizationEnergyMission 110002.13115692
scalar OsgEarthNet.uav[59] utilizationEnergyMaintenance 98409.775794983
scalar OsgEarthNet.uav[59] utilizationEnergyCharge 208563.03833008
scalar OsgEarthNet.uav[59] utilizationEnergyOverdrawMission 0
scalar OsgEarthNet.uav[59] utilizationEnergyOverdrawMaintenance 264.29306030273
scalar OsgEarthNet.uav[59] utilizationCountMissions 47
scalar OsgEarthNet.uav[59] utilizationCountManeuversMission 785
scalar OsgEarthNet.uav[59] utilizationCountManeuversMaintenance 94
scalar OsgEarthNet.uav[59] utilizationCountChargeState 47
scalar OsgEarthNet.uav[59] utilizationCountOverdrawnAfterMission 1
scalar OsgEarthNet.uav[59] utilizationCountIdleState 42
scalar OsgEarthNet.uav[59] utilizationFail 0
scalar OsgEarthNet.uav[59] simulationTime 259200
scalar OsgEarthNet.uav[60] utilizationSecMission 23506.251289753
scalar OsgEarthNet.uav[60] utilizationSecMaintenance 22721.703324237
scalar OsgEarthNet.uav[60] utilizationSecCharge 168270.04438601
scalar OsgEarthNet.uav[60] utilizationSecIdle 44702
scalar OsgEarthNet.uav[60] utilizationEnergyMission 114040.09333038
scalar OsgEarthNet.uav[60] utilizationEnergyMaintenance 106362.01987076
scalar OsgEarthNet.uav[60] utilizationEnergyCharge 222566.62841797
scalar OsgEarthNet.uav[60] utilizationEnergyOverdrawMission 0
scalar OsgEarthNet.uav[60] utilizationEnergyOverdrawMaintenance 0
scalar OsgEarthNet.uav[60] utilizationCountMissions 50
scalar OsgEarthNet.uav[60] utilizationCountManeuversMission 804
scalar OsgEarthNet.uav[60] utilizationCountManeuversMaintenance 100
scalar OsgEarthNet.uav[60] utilizationCountChargeState 50
scalar OsgEarthNet.uav[60] utilizationCountOverdrawnAfterMission 0
scalar OsgEarthNet.uav[60] utilizationCountIdleState 44
scalar OsgEarthNet.uav[60] utilizationFail 0
scalar OsgEarthNet.uav[60] simulationTime 259200
scalar OsgEarthNet.uav[61] utilizationSecMission 23819.363901755
scalar OsgEarthNet.uav[61] utilizationSecMaintenance 19140.215950344
scalar OsgEarthNet.uav[61] utilizationSecCharge 153293.94433611
scalar OsgEarthNet.uav[61] utilizationSecIdle 62946.474811791
scalar OsgEarthNet.uav[61] utilizationEnergyMission 116607.76508713
scalar OsgEarthNet.uav[61] utilizationEnergyMaintenance 88647.457920074
scalar OsgEarthNet.uav[61] utilizationEnergyCharge 202351.3548584
scalar OsgEarthNet.uav[61] utilizationEnergyOverdrawMission 0
scalar OsgEarthNet.uav[61] utilizationEnergyOverdrawMaintenance 0
scalar OsgEarthNet.uav[61] utilizationCountMissions 46
scalar OsgEarthNet.uav[61] utilizationCountManeuversMission 794
scalar OsgEarthNet.uav[61] utilizationCountManeuversMaintenance 92
scalar OsgEarthNet.uav[61] utilizationCountChargeState 46
scalar OsgEarthNet.uav[61] utilizationCountOverdrawnAfterMission 0
scalar OsgEarthNet.uav[61] utilizationCountIdleState 39
scalar OsgEarthNet.uav[61] utilizationFail 0
scalar OsgEarthNet.uav[61] simulationTime 259200
scalar OsgEarthNet.uav[62] utilizationSecMission 26558.602856965
scalar OsgEarthNet.uav[62] utilizationSecMaintenance 20385.125893739
scalar OsgEarthNet.uav[62] utilizationSecCharge 166404.2702493
scalar OsgEarthNet.uav[62] utilizationSecIdle 45852
scalar OsgEarthNet.uav[62] utilizationEnergyMission 128214.22154999
scalar OsgEarthNet.uav[62] utilizationEnergyMaintenance 93074.554759979
scalar OsgEarthNet.uav[62] utilizationEnergyCharge 221079.68188477
scalar OsgEarthNet.uav[62] utilizationEnergyOverdrawMission 0
scalar OsgEarthNet.uav[62] utilizationEnergyOverdrawMaintenance 0
scalar OsgEarthNet.uav[62] utilizationCountMissions 49
scalar OsgEarthNet.uav[62] utilizationCountManeuversMission 722
scalar OsgEarthNet.uav[62] utilizationCountManeuversMaintenance 98
scalar OsgEarthNet.uav[62] utilizationCountChargeState 49
scalar OsgEarthNet.uav[62] utilizationCountOverdrawnAfterMission 0
scalar OsgEarthNet.uav[62] utilizationCountIdleState 40
scalar OsgEarthNet.uav[62] utilizationFail 0
scalar OsgEarthNet.uav[62] simulationTime 259200
scalar OsgEarthNet.uav[63] utilizationSecMission 25072.851438418
scalar OsgEarthNet.uav[63] utilizationSecMaintenance 23896.351678418
scalar OsgEarthNet.uav[63] utilizationSecCharge 171319.28222221
scalar OsgEarthNet.uav[63] utilizationSecIdle 38911.51366095
scalar OsgEarthNet.uav[63] utilizationEnergyMission 118964.84837341
scalar OsgEarthNet.uav[63] utilizationEnergyMaintenance 109731.31425858
scalar OsgEarthNet.uav[63] utilizationEnergyCharge 226961.85559082
scalar OsgEarthNet.uav[63] utilizationEnergyOverdrawMission 0
scalar OsgEarthNet.uav[63] utilizationEnergyOverdrawMaintenance 0
scalar OsgEarthNet.uav[63] utilizationCountMissions 51
scalar OsgEarthNet.uav[63] utilizationCountManeuversMission 663
scalar OsgEarthNet.uav[63] utilizationCountManeuversMaintenance 102
scalar OsgEarthNet.uav[63] utilizationCountChargeState 51
scalar OsgEarthNet.uav[63] utilizationCountOverdrawnAfterMission 0
scalar OsgEarthNet.uav[63] utilizationCountIdleState 41
scalar OsgEarthNet.uav[63] utilizationFail 0
scalar OsgEarthNet.uav[63] simulationTime 259200
scalar OsgEarthNet.uav[64] utilizationSecMission 22408.934580824
scalar OsgEarthNet.uav[64] utilizationSecMaintenance 26009.153180416
scalar OsgEarthNet.uav[64] utilizationSecCharge 172728.61783324
scalar OsgEarthNet.uav[64] utilizationSecIdle 38053.293405518
scalar OsgEarthNet.uav[64] utilizationEnergyMission 108825.57902908
scalar OsgEarthNet.uav[64] utilizationEnergyMaintenance 120910.78613281
scalar OsgEarthNet.uav[64] utilizationEnergyCharge 228773.50341797
scalar OsgEarthNet.uav[64] utilizationEnergyOverdrawMission 0
scalar OsgEarthNet.uav[64] utilizationEnergyOverdrawMaintenance 206.95520114899
scalar OsgEarthNet.uav[64] utilizationCountMissions 51
scalar OsgEarthNet.uav[64] utilizationCountManeuversMission 696
scalar OsgEarthNet.uav[64] utilizationCountManeuversMaintenance 102
scalar OsgEarthNet.uav[64] utilizationCountChargeState 51
scalar OsgEarthNet.uav[64] utilizationCountOverdrawnAfterMission 2
scalar OsgEarthNet.uav[64] utilizationCountIdleState 40
scalar OsgEarthNet.uav[64] utilizationFail 0
scalar OsgEarthNet.uav[64] simulationTime 259200
scalar OsgEarthNet.uav[65] utilizationSecMission 27610.521842852
scalar OsgEarthNet.uav[65] utilizationSecMaintenance 23816.406061883
scalar OsgEarthNet.uav[65] utilizationSecCharge 183361.39804368
scalar OsgEarthNet.uav[65] utilizationSecIdle 24411.673051586
scalar OsgEarthNet.uav[65] utilizationEnergyMission 132814.89753342
scalar OsgEarthNet.uav[65] utilizationEnergyMaintenance 112235.16727448
scalar OsgEarthNet.uav[65] utilizationEnergyCharge 242796.54296875
scalar OsgEarthNet.uav[65] utilizationEnergyOverdrawMission 0
scalar OsgEarthNet.uav[65] utilizationEnergyOverdrawMaintenance 0
scalar OsgEarthNet.uav[65] utilizationCountMissions 55
[...]
scalar OsgEarthNet.uav[81] utilizationCountManeuversMission 855
scalar OsgEarthNet.uav[81] utilizationCountManeuversMaintenance 114
scalar OsgEarthNet.uav[81] utilizationCountChargeState 57
scalar OsgEarthNet.uav[81] utilizationCountOverdrawnAfterMission 0
scalar OsgEarthNet.uav[81] utilizationCountIdleState 37
scalar OsgEarthNet.uav[81] utilizationFail 0
scalar OsgEarthNet.uav[81] simulationTime 259200
scalar OsgEarthNet.uav[82] utilizationSecMission 27064.853688939
scalar OsgEarthNet.uav[82] utilizationSecMaintenance 27325.71996377
scalar OsgEarthNet.uav[82] utilizationSecCharge 193870
scalar OsgEarthNet.uav[82] utilizationSecIdle 10939.42534729
scalar OsgEarthNet.uav[82] utilizationEnergyMission 133582.35068998
scalar OsgEarthNet.uav[82] utilizationEnergyMaintenance 127908.42308426
scalar OsgEarthNet.uav[82] utilizationEnergyCharge 259304.11303711
scalar OsgEarthNet.uav[82] utilizationEnergyOverdrawMission 0
scalar OsgEarthNet.uav[82] utilizationEnergyOverdrawMaintenance 0
scalar OsgEarthNet.uav[82] utilizationCountMissions 58
scalar OsgEarthNet.uav[82] utilizationCountManeuversMission 916
scalar OsgEarthNet.uav[82] utilizationCountManeuversMaintenance 117
scalar OsgEarthNet.uav[82] utilizationCountChargeState 58
scalar OsgEarthNet.uav[82] utilizationCountOverdrawnAfterMission 0
scalar OsgEarthNet.uav[82] utilizationCountIdleState 29
scalar OsgEarthNet.uav[82] utilizationFail 0
scalar OsgEarthNet.uav[82] simulationTime 259200
scalar OsgEarthNet.uav[83] utilizationSecMission 29301.461136292
scalar OsgEarthNet.uav[83] utilizationSecMaintenance 25595.981657009
scalar OsgEarthNet.uav[83] utilizationSecCharge 192890
scalar OsgEarthNet.uav[83] utilizationSecIdle 11412.556206698
scalar OsgEarthNet.uav[83] utilizationEnergyMission 142908.00245386
scalar OsgEarthNet.uav[83] utilizationEnergyMaintenance 119099.49627686
scalar OsgEarthNet.uav[83] utilizationEnergyCharge 259915.35791016
scalar OsgEarthNet.uav[83] utilizationEnergyOverdrawMission 0
scalar OsgEarthNet.uav[83] utilizationEnergyOverdrawMaintenance 0
scalar OsgEarthNet.uav[83] utilizationCountMissions 58
scalar OsgEarthNet.uav[83] utilizationCountManeuversMission 857
scalar OsgEarthNet.uav[83] utilizationCountManeuversMaintenance 117
scalar OsgEarthNet.uav[83] utilizationCountChargeState 58
scalar OsgEarthNet.uav[83] utilizationCountOverdrawnAfterMission 0
scalar OsgEarthNet.uav[83] utilizationCountIdleState 27
scalar OsgEarthNet.uav[83] utilizationFail 0
scalar OsgEarthNet.uav[83] simulationTime 259200
scalar OsgEarthNet.uav[84] utilizationSecMission 28851.564721089
scalar OsgEarthNet.uav[84] utilizationSecMaintenance 27075.785554803
scalar OsgEarthNet.uav[84] utilizationSecCharge 195367.94502003
scalar OsgEarthNet.uav[84] utilizationSecIdle 7904.703704081
scalar OsgEarthNet.uav[84] utilizationEnergyMission 137517.86249542
scalar OsgEarthNet.uav[84] utilizationEnergyMaintenance 127361.23167801
scalar OsgEarthNet.uav[84] utilizationEnergyCharge 263492.24359131
scalar OsgEarthNet.uav[84] utilizationEnergyOverdrawMission 0
scalar OsgEarthNet.uav[84] utilizationEnergyOverdrawMaintenance 0
scalar OsgEarthNet.uav[84] utilizationCountMissions 60
scalar OsgEarthNet.uav[84] utilizationCountManeuversMission 863
scalar OsgEarthNet.uav[84] utilizationCountManeuversMaintenance 120
scalar OsgEarthNet.uav[84] utilizationCountChargeState 60
scalar OsgEarthNet.uav[84] utilizationCountOverdrawnAfterMission 0
scalar OsgEarthNet.uav[84] utilizationCountIdleState 23
scalar OsgEarthNet.uav[84] utilizationFail 0
scalar OsgEarthNet.uav[84] simulationTime 259200
scalar OsgEarthNet.uav[85] utilizationSecMission 27850.446291808
scalar OsgEarthNet.uav[85] utilizationSecMaintenance 28545.37342935
scalar OsgEarthNet.uav[85] utilizationSecCharge 195144.3424648
scalar OsgEarthNet.uav[85] utilizationSecIdle 7659.83681404
scalar OsgEarthNet.uav[85] utilizationEnergyMission 134666.51266098
scalar OsgEarthNet.uav[85] utilizationEnergyMaintenance 131185.11084366
scalar OsgEarthNet.uav[85] utilizationEnergyCharge 265903.4934082
scalar OsgEarthNet.uav[85] utilizationEnergyOverdrawMission 0
scalar OsgEarthNet.uav[85] utilizationEnergyOverdrawMaintenance 20.181591033936
scalar OsgEarthNet.uav[85] utilizationCountMissions 60
scalar OsgEarthNet.uav[85] utilizationCountManeuversMission 856
scalar OsgEarthNet.uav[85] utilizationCountManeuversMaintenance 120
scalar OsgEarthNet.uav[85] utilizationCountChargeState 60
scalar OsgEarthNet.uav[85] utilizationCountOverdrawnAfterMission 1
scalar OsgEarthNet.uav[85] utilizationCountIdleState 21
scalar OsgEarthNet.uav[85] utilizationFail 0
scalar OsgEarthNet.uav[85] simulationTime 259200
scalar OsgEarthNet.uav[86] utilizationSecMission 27459.930566854
scalar OsgEarthNet.uav[86] utilizationSecMaintenance 26628.326543439
scalar OsgEarthNet.uav[86] utilizationSecCharge 190725.40851027
scalar OsgEarthNet.uav[86] utilizationSecIdle 14386.333379433
scalar OsgEarthNet.uav[86] utilizationEnergyMission 134259.52785873
scalar OsgEarthNet.uav[86] utilizationEnergyMaintenance 123460.44067001
scalar OsgEarthNet.uav[86] utilizationEnergyCharge 256367.40283203
scalar OsgEarthNet.uav[86] utilizationEnergyOverdrawMission 0
scalar OsgEarthNet.uav[86] utilizationEnergyOverdrawMaintenance 0
scalar OsgEarthNet.uav[86] utilizationCountMissions 58
scalar OsgEarthNet.uav[86] utilizationCountManeuversMission 923
scalar OsgEarthNet.uav[86] utilizationCountManeuversMaintenance 116
scalar OsgEarthNet.uav[86] utilizationCountChargeState 58
scalar OsgEarthNet.uav[86] utilizationCountOverdrawnAfterMission 0
scalar OsgEarthNet.uav[86] utilizationCountIdleState 30
scalar OsgEarthNet.uav[86] utilizationFail 0
scalar OsgEarthNet.uav[86] simulationTime 259200
scalar OsgEarthNet.uav[87] utilizationSecMission 28287.081694838
scalar OsgEarthNet.uav[87] utilizationSecMaintenance 26177.177676097
scalar OsgEarthNet.uav[87] utilizationSecCharge 195050
scalar OsgEarthNet.uav[87] utilizationSecIdle 9685.7396290657
scalar OsgEarthNet.uav[87] utilizationEnergyMission 137770.60820007
scalar OsgEarthNet.uav[87] utilizationEnergyMaintenance 123042.96377563
scalar OsgEarthNet.uav[87] utilizationEnergyCharge 263078.06347656
scalar OsgEarthNet.uav[87] utilizationEnergyOverdrawMission 0
scalar OsgEarthNet.uav[87] utilizationEnergyOverdrawMaintenance 0
scalar OsgEarthNet.uav[87] utilizationCountMissions 59
scalar OsgEarthNet.uav[87] utilizationCountManeuversMission 903
scalar OsgEarthNet.uav[87] utilizationCountManeuversMaintenance 118
scalar OsgEarthNet.uav[87] utilizationCountChargeState 59
scalar OsgEarthNet.uav[87] utilizationCountOverdrawnAfterMission 0
scalar OsgEarthNet.uav[87] utilizationCountIdleState 27
scalar OsgEarthNet.uav[87] utilizationFail 0
scalar OsgEarthNet.uav[87] simulationTime 259200
scalar OsgEarthNet.uav[88] utilizationSecMission 29944.363233886
scalar OsgEarthNet.uav[88] utilizationSecMaintenance 26608.939729364
scalar OsgEarthNet.uav[88] utilizationSecCharge 195957.06495608
scalar OsgEarthNet.uav[88] utilizationSecIdle 6689.6310806652
scalar OsgEarthNet.uav[88] utilizationEnergyMission 142880.33073425
scalar OsgEarthNet.uav[88] utilizationEnergyMaintenance 123721.47938538
scalar OsgEarthNet.uav[88] utilizationEnergyCharge 263599.49029541
scalar OsgEarthNet.uav[88] utilizationEnergyOverdrawMission 0
scalar OsgEarthNet.uav[88] utilizationEnergyOverdrawMaintenance 0
scalar OsgEarthNet.uav[88] utilizationCountMissions 60
scalar OsgEarthNet.uav[88] utilizationCountManeuversMission 902
scalar OsgEarthNet.uav[88] utilizationCountManeuversMaintenance 120
scalar OsgEarthNet.uav[88] utilizationCountChargeState 60
scalar OsgEarthNet.uav[88] utilizationCountOverdrawnAfterMission 0
scalar OsgEarthNet.uav[88] utilizationCountIdleState 25
scalar OsgEarthNet.uav[88] utilizationFail 0
scalar OsgEarthNet.uav[88] simulationTime 259200
scalar OsgEarthNet.uav[89] utilizationSecMission 29217.998845088
scalar OsgEarthNet.uav[89] utilizationSecMaintenance 26331.501875101
scalar OsgEarthNet.uav[89] utilizationSecCharge 195168.49027981
scalar OsgEarthNet.uav[89] utilizationSecIdle 8482.008
scalar OsgEarthNet.uav[89] utilizationEnergyMission 139722.59214783
scalar OsgEarthNet.uav[89] utilizationEnergyMaintenance 123070.46934128
scalar OsgEarthNet.uav[89] utilizationEnergyCharge 263475.65844727
scalar OsgEarthNet.uav[89] utilizationEnergyOverdrawMission 0
scalar OsgEarthNet.uav[89] utilizationEnergyOverdrawMaintenance 0
scalar OsgEarthNet.uav[89] utilizationCountMissions 59
scalar OsgEarthNet.uav[89] utilizationCountManeuversMission 907
scalar OsgEarthNet.uav[89] utilizationCountManeuversMaintenance 118
scalar OsgEarthNet.uav[89] utilizationCountChargeState 59
scalar OsgEarthNet.uav[89] utilizationCountOverdrawnAfterMission 0
scalar OsgEarthNet.uav[89] utilizationCountIdleState 28
scalar OsgEarthNet.uav[89] utilizationFail 0
scalar OsgEarthNet.uav[89] simulationTime 259200
scalar OsgEarthNet.uav[90] utilizationSecMission 26954.330753235
scalar OsgEarthNet.uav[90] utilizationSecMaintenance 28650.066813631
scalar OsgEarthNet.uav[90] utilizationSecCharge 193227.54255367
scalar OsgEarthNet.uav[90] utilizationSecIdle 10368.058879462
scalar OsgEarthNet.uav[90] utilizationEnergyMission 130405.58652115
scalar OsgEarthNet.uav[90] utilizationEnergyMaintenance 134366.2781601
scalar OsgEarthNet.uav[90] utilizationEnergyCharge 263606.80102539
scalar OsgEarthNet.uav[90] utilizationEnergyOverdrawMission 0
scalar OsgEarthNet.uav[90] utilizationEnergyOverdrawMaintenance 27.489007949829
scalar OsgEarthNet.uav[90] utilizationCountMissions 59
scalar OsgEarthNet.uav[90] utilizationCountManeuversMission 815
scalar OsgEarthNet.uav[90] utilizationCountManeuversMaintenance 118
scalar OsgEarthNet.uav[90] utilizationCountChargeState 59
scalar OsgEarthNet.uav[90] utilizationCountOverdrawnAfterMission 1
scalar OsgEarthNet.uav[90] utilizationCountIdleState 21
scalar OsgEarthNet.uav[90] utilizationFail 0
scalar OsgEarthNet.uav[90] simulationTime 259200
scalar OsgEarthNet.uav[91] utilizationSecMission 28256.168033501
scalar OsgEarthNet.uav[91] utilizationSecMaintenance 27443.768184221
scalar OsgEarthNet.uav[91] utilizationSecCharge 197419.09979594
scalar OsgEarthNet.uav[91] utilizationSecIdle 6080.9629863342
scalar OsgEarthNet.uav[91] utilizationEnergyMission 139133.2654953
scalar OsgEarthNet.uav[91] utilizationEnergyMaintenance 127602.85382843
scalar OsgEarthNet.uav[91] utilizationEnergyCharge 265701.10778809
scalar OsgEarthNet.uav[91] utilizationEnergyOverdrawMission 0
scalar OsgEarthNet.uav[91] utilizationEnergyOverdrawMaintenance 0
scalar OsgEarthNet.uav[91] utilizationCountMissions 61
scalar OsgEarthNet.uav[91] utilizationCountManeuversMission 1053
scalar OsgEarthNet.uav[91] utilizationCountManeuversMaintenance 122
scalar OsgEarthNet.uav[91] utilizationCountChargeState 61
scalar OsgEarthNet.uav[91] utilizationCountOverdrawnAfterMission 0
scalar OsgEarthNet.uav[91] utilizationCountIdleState 26
scalar OsgEarthNet.uav[91] utilizationFail 0
scalar OsgEarthNet.uav[91] simulationTime 259200
scalar OsgEarthNet.uav[92] utilizationSecMission 28644.710801856
scalar OsgEarthNet.uav[92] utilizationSecMaintenance 27223.286198144
scalar OsgEarthNet.uav[92] utilizationSecCharge 196050
scalar OsgEarthNet.uav[92] utilizationSecIdle 7282.002
scalar OsgEarthNet.uav[92] utilizationEnergyMission 140497.88546855
scalar OsgEarthNet.uav[92] utilizationEnergyMaintenance 125946.92818451
scalar OsgEarthNet.uav[92] utilizationEnergyCharge 262974.4987793
scalar OsgEarthNet.uav[92] utilizationEnergyOverdrawMission 0
scalar OsgEarthNet.uav[92] utilizationEnergyOverdrawMaintenance 0
scalar OsgEarthNet.uav[92] utilizationCountMissions 59
scalar OsgEarthNet.uav[92] utilizationCountManeuversMission 931
scalar OsgEarthNet.uav[92] utilizationCountManeuversMaintenance 119
scalar OsgEarthNet.uav[92] utilizationCountChargeState 59
scalar OsgEarthNet.uav[92] utilizationCountOverdrawnAfterMission 0
scalar OsgEarthNet.uav[92] utilizationCountIdleState 32
scalar OsgEarthNet.uav[92] utilizationFail 0
scalar OsgEarthNet.uav[92] simulationTime 259200
scalar OsgEarthNet.uav[93] utilizationSecMission 29681.346254145
scalar OsgEarthNet.uav[93] utilizationSecMaintenance 25400.207804605
scalar OsgEarthNet.uav[93] utilizationSecCharge 192426.43494125
scalar OsgEarthNet.uav[93] utilizationSecIdle 11692.01
scalar OsgEarthNet.uav[93] utilizationEnergyMission 144076.31597137
scalar OsgEarthNet.uav[93] utilizationEnergyMaintenance 117997.93667221
scalar OsgEarthNet.uav[93] utilizationEnergyCharge 259851.82006836
scalar OsgEarthNet.uav[93] utilizationEnergyOverdrawMission 0
scalar OsgEarthNet.uav[93] utilizationEnergyOverdrawMaintenance 0
scalar OsgEarthNet.uav[93] utilizationCountMissions 59
scalar OsgEarthNet.uav[93] utilizationCountManeuversMission 925
scalar OsgEarthNet.uav[93] utilizationCountManeuversMaintenance 118
scalar OsgEarthNet.uav[93] utilizationCountChargeState 59
scalar OsgEarthNet.uav[93] utilizationCountOverdrawnAfterMission 0
scalar OsgEarthNet.uav[93] utilizationCountIdleState 23
scalar OsgEarthNet.uav[93] utilizationFail 0
scalar OsgEarthNet.uav[93] simulationTime 259200
scalar OsgEarthNet.uav[94] utilizationSecMission 28905.503231954
scalar OsgEarthNet.uav[94] utilizationSecMaintenance 26739.047679355
scalar OsgEarthNet.uav[94] utilizationSecCharge 194290
scalar OsgEarthNet.uav[94] utilizationSecIdle 9265.448088691
scalar OsgEarthNet.uav[94] utilizationEnergyMission 140507.5479333
scalar OsgEarthNet.uav[94] utilizationEnergyMaintenance 124630.69417572
scalar OsgEarthNet.uav[94] utilizationEnergyCharge 261754.90454102
scalar OsgEarthNet.uav[94] utilizationEnergyOverdrawMission 0
scalar OsgEarthNet.uav[94] utilizationEnergyOverdrawMaintenance 0
scalar OsgEarthNet.uav[94] utilizationCountMissions 60
scalar OsgEarthNet.uav[94] utilizationCountManeuversMission 915
scalar OsgEarthNet.uav[94] utilizationCountManeuversMaintenance 121
scalar OsgEarthNet.uav[94] utilizationCountChargeState 60
scalar OsgEarthNet.uav[94] utilizationCountOverdrawnAfterMission 0
scalar OsgEarthNet.uav[94] utilizationCountIdleState 23
scalar OsgEarthNet.uav[94] utilizationFail 0
scalar OsgEarthNet.uav[94] simulationTime 259200
scalar OsgEarthNet.uav[95] utilizationSecMission 28417.206366854
scalar OsgEarthNet.uav[95] utilizationSecMaintenance 27780.71235415
scalar OsgEarthNet.uav[95] utilizationSecCharge 197290.080279
scalar OsgEarthNet.uav[95] utilizationSecIdle 5712
scalar OsgEarthNet.uav[95] utilizationEnergyMission 137246.44986243
scalar OsgEarthNet.uav[95] utilizationEnergyMaintenance 129150.53654099
scalar OsgEarthNet.uav[95] utilizationEnergyCharge 266665.43481445
scalar OsgEarthNet.uav[95] utilizationEnergyOverdrawMission 0
scalar OsgEarthNet.uav[95] utilizationEnergyOverdrawMaintenance 0
scalar OsgEarthNet.uav[95] utilizationCountMissions 60
scalar OsgEarthNet.uav[95] utilizationCountManeuversMission 878
scalar OsgEarthNet.uav[95] utilizationCountManeuversMaintenance 119
scalar OsgEarthNet.uav[95] utilizationCountChargeState 60
scalar OsgEarthNet.uav[95] utilizationCountOverdrawnAfterMission 0
scalar OsgEarthNet.uav[95] utilizationCountIdleState 27
scalar OsgEarthNet.uav[95] utilizationFail 0
scalar OsgEarthNet.uav[95] simulationTime 259200
scalar OsgEarthNet.uav[96] utilizationSecMission 29248.438268214
scalar OsgEarthNet.uav[96] utilizationSecMaintenance 27250.293894918
scalar OsgEarthNet.uav[96] utilizationSecCharge 196309.26283687
scalar OsgEarthNet.uav[96] utilizationSecIdle 6392.004
scalar OsgEarthNet.uav[96] utilizationEnergyMission 141463.34854507
scalar OsgEarthNet.uav[96] utilizationEnergyMaintenance 126611.59728622
scalar OsgEarthNet.uav[96] utilizationEnergyCharge 265459.8480835
scalar OsgEarthNet.uav[96] utilizationEnergyOverdrawMission 0
scalar OsgEarthNet.uav[96] utilizationEnergyOverdrawMaintenance 0
scalar OsgEarthNet.uav[96] utilizationCountMissions 61
scalar OsgEarthNet.uav[96] utilizationCountManeuversMission 978
scalar OsgEarthNet.uav[96] utilizationCountManeuversMaintenance 122
scalar OsgEarthNet.uav[96] utilizationCountChargeState 61
scalar OsgEarthNet.uav[96] utilizationCountOverdrawnAfterMission 0
scalar OsgEarthNet.uav[96] utilizationCountIdleState 19
scalar OsgEarthNet.uav[96] utilizationFail 0
scalar OsgEarthNet.uav[96] simulationTime 259200
scalar OsgEarthNet.uav[97] utilizationSecMission 26806.24108929
scalar OsgEarthNet.uav[97] utilizationSecMaintenance 29706.260927408
scalar OsgEarthNet.uav[97] utilizationSecCharge 194019.05866367
scalar OsgEarthNet.uav[97] utilizationSecIdle 8668.4383196331
scalar OsgEarthNet.uav[97] utilizationEnergyMission 130163.96369553
scalar OsgEarthNet.uav[97] utilizationEnergyMaintenance 138112.83057785
scalar OsgEarthNet.uav[97] utilizationEnergyCharge 263683.07049561
scalar OsgEarthNet.uav[97] utilizationEnergyOverdrawMission 0
scalar OsgEarthNet.uav[97] utilizationEnergyOverdrawMaintenance 21.940359115601
scalar OsgEarthNet.uav[97] utilizationCountMissions 60
scalar OsgEarthNet.uav[97] utilizationCountManeuversMission 812
scalar OsgEarthNet.uav[97] utilizationCountManeuversMaintenance 120
scalar OsgEarthNet.uav[97] utilizationCountChargeState 60
scalar OsgEarthNet.uav[97] utilizationCountOverdrawnAfterMission 1
scalar OsgEarthNet.uav[97] utilizationCountIdleState 20
scalar OsgEarthNet.uav[97] utilizationFail 0
scalar OsgEarthNet.uav[97] simulationTime 259200
scalar OsgEarthNet.uav[98] utilizationSecMission 29752.840665763
scalar OsgEarthNet.uav[98] utilizationSecMaintenance 26331.120237204
scalar OsgEarthNet.uav[98] utilizationSecCharge 195668.587833
scalar OsgEarthNet.uav[98] utilizationSecIdle 7447.4502640309
scalar OsgEarthNet.uav[98] utilizationEnergyMission 145234.45726013
scalar OsgEarthNet.uav[98] utilizationEnergyMaintenance 122376.85297775
scalar OsgEarthNet.uav[98] utilizationEnergyCharge 262902.85437012
scalar OsgEarthNet.uav[98] utilizationEnergyOverdrawMission 0
scalar OsgEarthNet.uav[98] utilizationEnergyOverdrawMaintenance 0
scalar OsgEarthNet.uav[98] utilizationCountMissions 60
scalar OsgEarthNet.uav[98] utilizationCountManeuversMission 944
scalar OsgEarthNet.uav[98] utilizationCountManeuversMaintenance 120
scalar OsgEarthNet.uav[98] utilizationCountChargeState 60
scalar OsgEarthNet.uav[98] utilizationCountOverdrawnAfterMission 0
scalar OsgEarthNet.uav[98] utilizationCountIdleState 25
scalar OsgEarthNet.uav[98] utilizationFail 0
scalar OsgEarthNet.uav[98] simulationTime 259200
scalar OsgEarthNet.uav[99] utilizationSecMission 27661.312920231
scalar OsgEarthNet.uav[99] utilizationSecMaintenance 28342.255818545
scalar OsgEarthNet.uav[99] utilizationSecCharge 194460
scalar OsgEarthNet.uav[99] utilizationSecIdle 8736.4302612234
scalar OsgEarthNet.uav[99] utilizationEnergyMission 134759.8335729
scalar OsgEarthNet.uav[99] utilizationEnergyMaintenance 130912.73290634
scalar OsgEarthNet.uav[99] utilizationEnergyCharge 263252.87719727
scalar OsgEarthNet.uav[99] utilizationEnergyOverdrawMission 0
scalar OsgEarthNet.uav[99] utilizationEnergyOverdrawMaintenance 0
scalar OsgEarthNet.uav[99] utilizationCountMissions 59
scalar OsgEarthNet.uav[99] utilizationCountManeuversMission 874
scalar OsgEarthNet.uav[99] utilizationCountManeuversMaintenance 119
scalar OsgEarthNet.uav[99] utilizationCountChargeState 59
scalar OsgEarthNet.uav[99] utilizationCountOverdrawnAfterMission 0
scalar OsgEarthNet.uav[99] utilizationCountIdleState 23
scalar OsgEarthNet.uav[99] utilizationFail 0
scalar OsgEarthNet.uav[99] simulationTime 259200
scalar OsgEarthNet.cs[0] usedPower 5252808.7933977
scalar OsgEarthNet.cs[0] chargedPower 5252808.7933977
scalar OsgEarthNet.cs[0] chargedMobileNodes 907
scalar OsgEarthNet.cs[0] reservations 1199
scalar OsgEarthNet.cs[1] usedPower 5698394.5197942
scalar OsgEarthNet.cs[1] chargedPower 5698394.5197942
scalar OsgEarthNet.cs[1] chargedMobileNodes 953
scalar OsgEarthNet.cs[1] reservations 1264
scalar OsgEarthNet.cs[2] usedPower 9681358.6870949
scalar OsgEarthNet.cs[2] chargedPower 9681358.6870949
scalar OsgEarthNet.cs[2] chargedMobileNodes 1759
scalar OsgEarthNet.cs[2] reservations 2191

