version 2
run Szenario_Hotel_Gabelbach-23-20180707-21:53:50-20660
attr configname Szenario_Hotel_Gabelbach
attr datetime 20180707-21:53:50
attr experiment Szenario_Hotel_Gabelbach
attr inifile omnetpp.ini
attr iterationvars "$quant=0.50, $replM=0"
attr iterationvarsf quant=0.50,replM=0-
attr measurement "$quant=0.50, $replM=0"
attr network OsgEarthNet
attr processid 20660
attr repetition 23
attr replication #23
attr resultdir results
attr runnumber 23
attr seedset 23
itervar quant 0.50
itervar replM 0
param *.osgEarthScene.scene "\"Szenario_Hotel_Gabelbach.earth\""
param *.playgroundLatitude 50.6830269
param *.playgroundLongitude 10.8538055
param *.playgroundWidth 3500m
param *.playgroundHeight 3500m
param *.numCSs 3
param *.numUAVs 100
param *.cs[0].posX 3537m
param *.cs[0].posY 965m
param *.cs[0].posZ 538m
param *.cs[1].posX 312m
param *.cs[1].posY 1262m
param *.cs[1].posZ 539m
param *.cs[2].posX 2185m
param *.cs[2].posY 3026m
param *.cs[2].posZ 777m
param *.uav[*].predictionQuantile 0.50
param *.uav[*].replacementMethod 0
param *.*.timeStep 10s
param *.uav[*].commandPreviewCommandCount 20
param *.missionControl.missionFiles "\"missions\\\\Szenario_WB_Hotel_Gabelbach_Mission_Hotel.waypoints,missions\\\\Szenario_WB_Hotel_Gabelbach_Mission_Kickelhahn.waypoints,missions\\\\Szenario_WB_Hotel_Gabelbach_Mission_Ilmenau_Sportplatz.waypoints,missions\\\\Szenario_WB_Hotel_Gabelbach_Mission_Manebach_Mitte.waypoints,missions\\\\Szenario_WB_Hotel_Gabelbach_Mission_Manebach_Sued.waypoints,missions\\\\Szenario_WB_Hotel_Gabelbach_Hover_HoheSchlaufe.waypoints,missions\\\\Szenario_WB_Hotel_Gabelbach_Hover_Kickelhahn.waypoints,missions\\\\Szenario_WB_Hotel_Gabelbach_Hover_Gabelbachskopf.waypoints,missions\\\\Szenario_WB_Hotel_Gabelbach_Hover_Dachskopf.waypoints\""
param *.uav[0].startX 3537m
param *.uav[0].startY 965m
param *.uav[0].startZ 539m
param *.uav[1].startX 312m
param *.uav[1].startY 1262m
param *.uav[1].startZ 540m
param *.uav[2].startX 2185m
param *.uav[2].startY 3026m
param *.uav[2].startZ 778m
param *.uav[3].startX 3537m
param *.uav[3].startY 965m
param *.uav[3].startZ 539m
param *.uav[4].startX 312m
param *.uav[4].startY 1262m
param *.uav[4].startZ 540m
param *.uav[5].startX 2185m
param *.uav[5].startY 3026m
param *.uav[5].startZ 778m
param *.uav[6].startX 3537m
param *.uav[6].startY 965m
param *.uav[6].startZ 539m
param *.uav[7].startX 312m
param *.uav[7].startY 1262m
param *.uav[7].startZ 540m
param *.uav[8].startX 2185m
param *.uav[8].startY 3026m
param *.uav[8].startZ 778m
param *.uav[9].startX 3537m
param *.uav[9].startY 965m
param *.uav[9].startZ 539m
param *.uav[10].startX 3537m
param *.uav[10].startY 965m
param *.uav[10].startZ 539m
param *.uav[11].startX 312m
param *.uav[11].startY 1262m
param *.uav[11].startZ 540m
param *.uav[12].startX 2185m
param *.uav[12].startY 3026m
param *.uav[12].startZ 778m
param *.uav[13].startX 3537m
param *.uav[13].startY 965m
param *.uav[13].startZ 539m
param *.uav[14].startX 312m
param *.uav[14].startY 1262m
param *.uav[14].startZ 540m
param *.uav[15].startX 2185m
param *.uav[15].startY 3026m
param *.uav[15].startZ 778m
param *.uav[16].startX 3537m
param *.uav[16].startY 965m
param *.uav[16].startZ 539m
param *.uav[17].startX 312m
param *.uav[17].startY 1262m
param *.uav[17].startZ 540m
param *.uav[18].startX 2185m
param *.uav[18].startY 3026m
param *.uav[18].startZ 778m
param *.uav[19].startX 3537m
param *.uav[19].startY 965m
param *.uav[19].startZ 539m
param *.uav[20].startX 3537m
param *.uav[20].startY 965m
param *.uav[20].startZ 539m
param *.uav[21].startX 312m
param *.uav[21].startY 1262m
param *.uav[21].startZ 540m
param *.uav[22].startX 2185m
param *.uav[22].startY 3026m
param *.uav[22].startZ 778m
param *.uav[23].startX 3537m
param *.uav[23].startY 965m
param *.uav[23].startZ 539m
param *.uav[24].startX 312m
param *.uav[24].startY 1262m
param *.uav[24].startZ 540m
param *.uav[25].startX 2185m
param *.uav[25].startY 3026m
param *.uav[25].startZ 778m
param *.uav[26].startX 3537m
param *.uav[26].startY 965m
param *.uav[26].startZ 539m
param *.uav[27].startX 312m
param *.uav[27].startY 1262m
param *.uav[27].startZ 540m
param *.uav[28].startX 2185m
param *.uav[28].startY 3026m
param *.uav[28].startZ 778m
param *.uav[29].startX 3537m
param *.uav[29].startY 965m
param *.uav[29].startZ 539m
param *.uav[30].startX 3537m
param *.uav[30].startY 965m
param *.uav[30].startZ 539m
param *.uav[31].startX 312m
param *.uav[31].startY 1262m
param *.uav[31].startZ 540m
param *.uav[32].startX 2185m
param *.uav[32].startY 3026m
param *.uav[32].startZ 778m
param *.uav[33].startX 3537m
param *.uav[33].startY 965m
param *.uav[33].startZ 539m
param *.uav[34].startX 312m
param *.uav[34].startY 1262m
param *.uav[34].startZ 540m
param *.uav[35].startX 2185m
param *.uav[35].startY 3026m
param *.uav[35].startZ 778m
param *.uav[36].startX 3537m
param *.uav[36].startY 965m
param *.uav[36].startZ 539m
param *.uav[37].startX 312m
param *.uav[37].startY 1262m
param *.uav[37].startZ 540m
param *.uav[38].startX 2185m
param *.uav[38].startY 3026m
param *.uav[38].startZ 778m
param *.uav[39].startX 3537m
param *.uav[39].startY 965m
param *.uav[39].startZ 539m
param *.uav[40].startX 3537m
param *.uav[40].startY 965m
param *.uav[40].startZ 539m
param *.uav[41].startX 312m
param *.uav[41].startY 1262m
param *.uav[41].startZ 540m
param *.uav[42].startX 2185m
param *.uav[42].startY 3026m
param *.uav[42].startZ 778m
param *.uav[43].startX 3537m
param *.uav[43].startY 965m
param *.uav[43].startZ 539m
param *.uav[44].startX 312m
param *.uav[44].startY 1262m
param *.uav[44].startZ 540m
param *.uav[45].startX 2185m
param *.uav[45].startY 3026m
param *.uav[45].startZ 778m
param *.uav[46].startX 3537m
param *.uav[46].startY 965m
param *.uav[46].startZ 539m
param *.uav[47].startX 312m
param *.uav[47].startY 1262m
param *.uav[47].startZ 540m
param *.uav[48].startX 2185m
param *.uav[48].startY 3026m
param *.uav[48].startZ 778m
param *.uav[49].startX 3537m
param *.uav[49].startY 965m
param *.uav[49].startZ 539m
param *.uav[50].startX 3537m
param *.uav[50].startY 965m
param *.uav[50].startZ 539m
param *.uav[51].startX 312m
param *.uav[51].startY 1262m
param *.uav[51].startZ 540m
param *.uav[52].startX 2185m
param *.uav[52].startY 3026m
param *.uav[52].startZ 778m
param *.uav[53].startX 3537m
param *.uav[53].startY 965m
param *.uav[53].startZ 539m
param *.uav[54].startX 312m
param *.uav[54].startY 1262m
param *.uav[54].startZ 540m
param *.uav[55].startX 2185m
param *.uav[55].startY 3026m
param *.uav[55].startZ 778m
param *.uav[56].startX 3537m
param *.uav[56].startY 965m
param *.uav[56].startZ 539m
param *.uav[57].startX 312m
param *.uav[57].startY 1262m
param *.uav[57].startZ 540m
param *.uav[58].startX 2185m
param *.uav[58].startY 3026m
param *.uav[58].startZ 778m
param *.uav[59].startX 3537m
param *.uav[59].startY 965m
param *.uav[59].startZ 539m
param *.uav[60].startX 3537m
param *.uav[60].startY 965m
param *.uav[60].startZ 539m
param *.uav[61].startX 312m
param *.uav[61].startY 1262m
param *.uav[61].startZ 540m
param *.uav[62].startX 2185m
param *.uav[62].startY 3026m
param *.uav[62].startZ 778m
param *.uav[63].startX 3537m
param *.uav[63].startY 965m
param *.uav[63].startZ 539m
param *.uav[64].startX 312m
param *.uav[64].startY 1262m
param *.uav[64].startZ 540m
param *.uav[65].startX 2185m
param *.uav[65].startY 3026m
param *.uav[65].startZ 778m
param *.uav[66].startX 3537m
param *.uav[66].startY 965m
param *.uav[66].startZ 539m
param *.uav[67].startX 312m
param *.uav[67].startY 1262m
param *.uav[67].startZ 540m
param *.uav[68].startX 2185m
param *.uav[68].startY 3026m
param *.uav[68].startZ 778m
param *.uav[69].startX 3537m
param *.uav[69].startY 965m
param *.uav[69].startZ 539m
param *.uav[70].startX 3537m
param *.uav[70].startY 965m
param *.uav[70].startZ 539m
param *.uav[71].startX 312m
param *.uav[71].startY 1262m
param *.uav[71].startZ 540m
param *.uav[72].startX 2185m
param *.uav[72].startY 3026m
param *.uav[72].startZ 778m
param *.uav[73].startX 3537m
param *.uav[73].startY 965m
param *.uav[73].startZ 539m
param *.uav[74].startX 312m
param *.uav[74].startY 1262m
param *.uav[74].startZ 540m
param *.uav[75].startX 2185m
param *.uav[75].startY 3026m
param *.uav[75].startZ 778m
param *.uav[76].startX 3537m
param *.uav[76].startY 965m
param *.uav[76].startZ 539m
param *.uav[77].startX 312m
param *.uav[77].startY 1262m
param *.uav[77].startZ 540m
param *.uav[78].startX 2185m
param *.uav[78].startY 3026m
param *.uav[78].startZ 778m
param *.uav[79].startX 3537m
param *.uav[79].startY 965m
param *.uav[79].startZ 539m
param *.uav[80].startX 3537m
param *.uav[80].startY 965m
param *.uav[80].startZ 539m
param *.uav[81].startX 312m
param *.uav[81].startY 1262m
param *.uav[81].startZ 540m
param *.uav[82].startX 2185m
param *.uav[82].startY 3026m
param *.uav[82].startZ 778m
param *.uav[83].startX 3537m
param *.uav[83].startY 965m
param *.uav[83].startZ 539m
param *.uav[84].startX 312m
param *.uav[84].startY 1262m
param *.uav[84].startZ 540m
param *.uav[85].startX 2185m
param *.uav[85].startY 3026m
param *.uav[85].startZ 778m
param *.uav[86].startX 3537m
param *.uav[86].startY 965m
param *.uav[86].startZ 539m
param *.uav[87].startX 312m
param *.uav[87].startY 1262m
param *.uav[87].startZ 540m
param *.uav[88].startX 2185m
param *.uav[88].startY 3026m
param *.uav[88].startZ 778m
param *.uav[89].startX 3537m
param *.uav[89].startY 965m
param *.uav[89].startZ 539m
param *.uav[90].startX 3537m
param *.uav[90].startY 965m
param *.uav[90].startZ 539m
param *.uav[91].startX 312m
param *.uav[91].startY 1262m
param *.uav[91].startZ 540m
param *.uav[92].startX 2185m
param *.uav[92].startY 3026m
param *.uav[92].startZ 778m
param *.uav[93].startX 3537m
param *.uav[93].startY 965m
param *.uav[93].startZ 539m
param *.uav[94].startX 312m
param *.uav[94].startY 1262m
param *.uav[94].startZ 540m
param *.uav[95].startX 2185m
param *.uav[95].startY 3026m
param *.uav[95].startZ 778m
param *.uav[96].startX 3537m
param *.uav[96].startY 965m
param *.uav[96].startZ 539m
param *.uav[97].startX 312m
param *.uav[97].startY 1262m
param *.uav[97].startZ 540m
param *.uav[98].startX 2185m
param *.uav[98].startY 3026m
param *.uav[98].startZ 778m
param *.uav[99].startX 3537m
param *.uav[99].startY 965m
param *.uav[99].startZ 539m
param *.osgEarthScene.scene "\"boston.earth\""
param *.playgroundLatitude 42.3558
param *.playgroundLongitude -71.0677
param *.playgroundWidth 400m
param *.playgroundHeight 200m
param *.channelController.connectionColor "\"#0000FF40\""
param *.channelController.showConnections false
param *.uav[*].modelURL "\"quadrocopter.small.obj.15.scale.0,0,90.rot\""
param *.uav[*].labelColor "\"#FF7C00CC\""
param *.uav[*].label2Color "\"#FF7C00EE\""
param *.uav[*].batteryCapacity 5200mAh
param *.uav[*].batteryRemaining uav[index].batteryCapacity
param *.uav[*].predictionQuantile 0.95
param *.uav[*].replacementMethod 2
param *.uav[*].weightedSumWeight 0.5
param *.cs[*].modelURL "\"chargingstation_v1.osgt.1.scale.0,0,0.rot.0,0,-15e-1.trans\""
param *.cs[*].spotsWaiting 999
param *.cs[*].spotsCharging 999
param *.cs[*].chargeEffectivenessPercentage 100
param *.cs[*].nonLinearPhaseStartPercentage 85
param *.cs[*].chargeCurrent 6.0A
param *.cs[*].prioritizeFastCharge true
param *.missionControl.replacementSearchMethod 0
param *.*.timeStep 9s

scalar OsgEarthNet.uav[0] utilizationSecMission 7385.530241435
scalar OsgEarthNet.uav[0] utilizationSecMaintenance 5506.7168062616
scalar OsgEarthNet.uav[0] utilizationSecCharge 43793.973054784
scalar OsgEarthNet.uav[0] utilizationSecIdle 63042.401357956
scalar OsgEarthNet.uav[0] utilizationEnergyMission 36370.112827301
scalar OsgEarthNet.uav[0] utilizationEnergyMaintenance 24953.313076019
scalar OsgEarthNet.uav[0] utilizationEnergyCharge 58912.840820312
scalar OsgEarthNet.uav[0] utilizationEnergyOverdrawMission 0
scalar OsgEarthNet.uav[0] utilizationEnergyOverdrawMaintenance 648.30990600586
scalar OsgEarthNet.uav[0] utilizationCountMissions 12
scalar OsgEarthNet.uav[0] utilizationCountManeuversMission 282
scalar OsgEarthNet.uav[0] utilizationCountManeuversMaintenance 24
scalar OsgEarthNet.uav[0] utilizationCountChargeState 12
scalar OsgEarthNet.uav[0] utilizationCountOverdrawnAfterMission 4
scalar OsgEarthNet.uav[0] utilizationCountIdleState 12
scalar OsgEarthNet.uav[0] utilizationFail 0
scalar OsgEarthNet.uav[0] simulationTime 119728.62246044
scalar OsgEarthNet.uav[1] utilizationSecMission 694.00169469977
scalar OsgEarthNet.uav[1] utilizationSecMaintenance 403.01688406838
scalar OsgEarthNet.uav[1] utilizationSecCharge 3870
scalar OsgEarthNet.uav[1] utilizationSecIdle 114761.60288167
scalar OsgEarthNet.uav[1] utilizationEnergyMission 3264.0467605591
scalar OsgEarthNet.uav[1] utilizationEnergyMaintenance 2064.5962028503
scalar OsgEarthNet.uav[1] utilizationEnergyCharge 5200
scalar OsgEarthNet.uav[1] utilizationEnergyOverdrawMission 0
scalar OsgEarthNet.uav[1] utilizationEnergyOverdrawMaintenance 67.255210876465
scalar OsgEarthNet.uav[1] utilizationCountMissions 1
scalar OsgEarthNet.uav[1] utilizationCountManeuversMission 13
scalar OsgEarthNet.uav[1] utilizationCountManeuversMaintenance 2
scalar OsgEarthNet.uav[1] utilizationCountChargeState 1
scalar OsgEarthNet.uav[1] utilizationCountOverdrawnAfterMission 1
scalar OsgEarthNet.uav[1] utilizationCountIdleState 2
scalar OsgEarthNet.uav[1] utilizationFail 0
scalar OsgEarthNet.uav[1] simulationTime 119728.62246044
scalar OsgEarthNet.uav[2] utilizationSecMission 12377.960129217
scalar OsgEarthNet.uav[2] utilizationSecMaintenance 8227.6372541711
scalar OsgEarthNet.uav[2] utilizationSecCharge 72303.712942302
scalar OsgEarthNet.uav[2] utilizationSecIdle 26819.311134746
scalar OsgEarthNet.uav[2] utilizationEnergyMission 59803.383087158
scalar OsgEarthNet.uav[2] utilizationEnergyMaintenance 37794.760059357
scalar OsgEarthNet.uav[2] utilizationEnergyCharge 95968.3125
scalar OsgEarthNet.uav[2] utilizationEnergyOverdrawMission 0
scalar OsgEarthNet.uav[2] utilizationEnergyOverdrawMaintenance 448.74530601501
scalar OsgEarthNet.uav[2] utilizationCountMissions 19
scalar OsgEarthNet.uav[2] utilizationCountManeuversMission 347
scalar OsgEarthNet.uav[2] utilizationCountManeuversMaintenance 38
scalar OsgEarthNet.uav[2] utilizationCountChargeState 19
scalar OsgEarthNet.uav[2] utilizationCountOverdrawnAfterMission 7
scalar OsgEarthNet.uav[2] utilizationCountIdleState 19
scalar OsgEarthNet.uav[2] utilizationFail 0
scalar OsgEarthNet.uav[2] simulationTime 119728.62246044
scalar OsgEarthNet.uav[3] utilizationSecMission 6151.2904281588
scalar OsgEarthNet.uav[3] utilizationSecMaintenance 3531.5207074657
scalar OsgEarthNet.uav[3] utilizationSecCharge 34150
scalar OsgEarthNet.uav[3] utilizationSecIdle 75895.810324812
scalar OsgEarthNet.uav[3] utilizationEnergyMission 29380.172534943
scalar OsgEarthNet.uav[3] utilizationEnergyMaintenance 16629.977603912
scalar OsgEarthNet.uav[3] utilizationEnergyCharge 45052.42578125
scalar OsgEarthNet.uav[3] utilizationEnergyOverdrawMission 0
scalar OsgEarthNet.uav[3] utilizationEnergyOverdrawMaintenance 929.93998718262
scalar OsgEarthNet.uav[3] utilizationCountMissions 9
scalar OsgEarthNet.uav[3] utilizationCountManeuversMission 144
scalar OsgEarthNet.uav[3] utilizationCountManeuversMaintenance 18
scalar OsgEarthNet.uav[3] utilizationCountChargeState 9
scalar OsgEarthNet.uav[3] utilizationCountOverdrawnAfterMission 2
scalar OsgEarthNet.uav[3] utilizationCountIdleState 10
scalar OsgEarthNet.uav[3] utilizationFail 0
scalar OsgEarthNet.uav[3] simulationTime 119728.62246044
scalar OsgEarthNet.uav[4] utilizationSecMission 694.00169469977
scalar OsgEarthNet.uav[4] utilizationSecMaintenance 403.01688406838
scalar OsgEarthNet.uav[4] utilizationSecCharge 3840
scalar OsgEarthNet.uav[4] utilizationSecIdle 114791.60288167
scalar OsgEarthNet.uav[4] utilizationEnergyMission 3325.1927947998
scalar OsgEarthNet.uav[4] utilizationEnergyMaintenance 1823.1453971863
scalar OsgEarthNet.uav[4] utilizationEnergyCharge 5111.4233398438
scalar OsgEarthNet.uav[4] utilizationEnergyOverdrawMission 0
scalar OsgEarthNet.uav[4] utilizationEnergyOverdrawMaintenance 0
scalar OsgEarthNet.uav[4] utilizationCountMissions 1
scalar OsgEarthNet.uav[4] utilizationCountManeuversMission 13
scalar OsgEarthNet.uav[4] utilizationCountManeuversMaintenance 2
scalar OsgEarthNet.uav[4] utilizationCountChargeState 1
scalar OsgEarthNet.uav[4] utilizationCountOverdrawnAfterMission 0
scalar OsgEarthNet.uav[4] utilizationCountIdleState 2
scalar OsgEarthNet.uav[4] utilizationFail 0
scalar OsgEarthNet.uav[4] simulationTime 119728.62246044
scalar OsgEarthNet.uav[5] utilizationSecMission 8021.9996064845
scalar OsgEarthNet.uav[5] utilizationSecMaintenance 6068.0909042058
scalar OsgEarthNet.uav[5] utilizationSecCharge 50020
scalar OsgEarthNet.uav[5] utilizationSecIdle 55618.530949747
scalar OsgEarthNet.uav[5] utilizationEnergyMission 39045.603359222
scalar OsgEarthNet.uav[5] utilizationEnergyMaintenance 28427.28647995
scalar OsgEarthNet.uav[5] utilizationEnergyCharge 66452.499023438
scalar OsgEarthNet.uav[5] utilizationEnergyOverdrawMission 0
scalar OsgEarthNet.uav[5] utilizationEnergyOverdrawMaintenance 972.95677185059
scalar OsgEarthNet.uav[5] utilizationCountMissions 13
scalar OsgEarthNet.uav[5] utilizationCountManeuversMission 284
scalar OsgEarthNet.uav[5] utilizationCountManeuversMaintenance 26
scalar OsgEarthNet.uav[5] utilizationCountChargeState 13
scalar OsgEarthNet.uav[5] utilizationCountOverdrawnAfterMission 8
scalar OsgEarthNet.uav[5] utilizationCountIdleState 14
scalar OsgEarthNet.uav[5] utilizationFail 0
scalar OsgEarthNet.uav[5] simulationTime 119728.62246044
scalar OsgEarthNet.uav[6] utilizationSecMission 735.14326557473
scalar OsgEarthNet.uav[6] utilizationSecMaintenance 350.53687742834
scalar OsgEarthNet.uav[6] utilizationSecCharge 3790
scalar OsgEarthNet.uav[6] utilizationSecIdle 114852.94131743
scalar OsgEarthNet.uav[6] utilizationEnergyMission 3271.2043762207
scalar OsgEarthNet.uav[6] utilizationEnergyMaintenance 1709.7748794556
scalar OsgEarthNet.uav[6] utilizationEnergyCharge 5035.2963867188
scalar OsgEarthNet.uav[6] utilizationEnergyOverdrawMission 0
scalar OsgEarthNet.uav[6] utilizationEnergyOverdrawMaintenance 0
scalar OsgEarthNet.uav[6] utilizationCountMissions 1
scalar OsgEarthNet.uav[6] utilizationCountManeuversMission 11
scalar OsgEarthNet.uav[6] utilizationCountManeuversMaintenance 2
scalar OsgEarthNet.uav[6] utilizationCountChargeState 1
scalar OsgEarthNet.uav[6] utilizationCountOverdrawnAfterMission 0
scalar OsgEarthNet.uav[6] utilizationCountIdleState 2
scalar OsgEarthNet.uav[6] utilizationFail 0
scalar OsgEarthNet.uav[6] simulationTime 119728.62246044
scalar OsgEarthNet.uav[7] utilizationSecMission 480
scalar OsgEarthNet.uav[7] utilizationSecMaintenance 507.16988087142
scalar OsgEarthNet.uav[7] utilizationSecCharge 3890
scalar OsgEarthNet.uav[7] utilizationSecIdle 114851.45157957
scalar OsgEarthNet.uav[7] utilizationEnergyMission 2699.5380821228
scalar OsgEarthNet.uav[7] utilizationEnergyMaintenance 2396.6248893738
scalar OsgEarthNet.uav[7] utilizationEnergyCharge 5200
scalar OsgEarthNet.uav[7] utilizationEnergyOverdrawMission 0
scalar OsgEarthNet.uav[7] utilizationEnergyOverdrawMaintenance 12.095236778259
scalar OsgEarthNet.uav[7] utilizationCountMissions 1
scalar OsgEarthNet.uav[7] utilizationCountManeuversMission 24
scalar OsgEarthNet.uav[7] utilizationCountManeuversMaintenance 2
scalar OsgEarthNet.uav[7] utilizationCountChargeState 1
scalar OsgEarthNet.uav[7] utilizationCountOverdrawnAfterMission 1
scalar OsgEarthNet.uav[7] utilizationCountIdleState 2
scalar OsgEarthNet.uav[7] utilizationFail 0
scalar OsgEarthNet.uav[7] simulationTime 119728.62246044
scalar OsgEarthNet.uav[8] utilizationSecMission 10117.441698231
scalar OsgEarthNet.uav[8] utilizationSecMaintenance 5791.6157991394
scalar OsgEarthNet.uav[8] utilizationSecCharge 55142.858600387
scalar OsgEarthNet.uav[8] utilizationSecIdle 48676.70536268
scalar OsgEarthNet.uav[8] utilizationEnergyMission 48998.373725891
scalar OsgEarthNet.uav[8] utilizationEnergyMaintenance 27296.416130066
scalar OsgEarthNet.uav[8] utilizationEnergyCharge 73626.563720703
scalar OsgEarthNet.uav[8] utilizationEnergyOverdrawMission 0
scalar OsgEarthNet.uav[8] utilizationEnergyOverdrawMaintenance 537.22578048706
scalar OsgEarthNet.uav[8] utilizationCountMissions 15
scalar OsgEarthNet.uav[8] utilizationCountManeuversMission 278
scalar OsgEarthNet.uav[8] utilizationCountManeuversMaintenance 30
scalar OsgEarthNet.uav[8] utilizationCountChargeState 15
scalar OsgEarthNet.uav[8] utilizationCountOverdrawnAfterMission 5
scalar OsgEarthNet.uav[8] utilizationCountIdleState 15
scalar OsgEarthNet.uav[8] utilizationFail 0
scalar OsgEarthNet.uav[8] simulationTime 119728.62246044
scalar OsgEarthNet.uav[9] utilizationSecMission 11313.089315955
scalar OsgEarthNet.uav[9] utilizationSecMaintenance 6813.6479012343
scalar OsgEarthNet.uav[9] utilizationSecCharge 64400
scalar OsgEarthNet.uav[9] utilizationSecIdle 37201.884243248
scalar OsgEarthNet.uav[9] utilizationEnergyMission 54029.651615143
scalar OsgEarthNet.uav[9] utilizationEnergyMaintenance 31713.366928101
scalar OsgEarthNet.uav[9] utilizationEnergyCharge 85047.661621094
scalar OsgEarthNet.uav[9] utilizationEnergyOverdrawMission 0
scalar OsgEarthNet.uav[9] utilizationEnergyOverdrawMaintenance 142.00868988037
scalar OsgEarthNet.uav[9] utilizationCountMissions 17
scalar OsgEarthNet.uav[9] utilizationCountManeuversMission 334
scalar OsgEarthNet.uav[9] utilizationCountManeuversMaintenance 34
scalar OsgEarthNet.uav[9] utilizationCountChargeState 17
scalar OsgEarthNet.uav[9] utilizationCountOverdrawnAfterMission 3
scalar OsgEarthNet.uav[9] utilizationCountIdleState 18
scalar OsgEarthNet.uav[9] utilizationFail 0
scalar OsgEarthNet.uav[9] simulationTime 119728.62246044
scalar OsgEarthNet.uav[10] utilizationSecMission 8500.518665617
scalar OsgEarthNet.uav[10] utilizationSecMaintenance 6556.0823906629
scalar OsgEarthNet.uav[10] utilizationSecCharge 52380.198669822
scalar OsgEarthNet.uav[10] utilizationSecIdle 52291.821734335
scalar OsgEarthNet.uav[10] utilizationEnergyMission 40187.278175354
scalar OsgEarthNet.uav[10] utilizationEnergyMaintenance 30545.968925476
scalar OsgEarthNet.uav[10] utilizationEnergyCharge 70753.815917969
scalar OsgEarthNet.uav[10] utilizationEnergyOverdrawMission 0
scalar OsgEarthNet.uav[10] utilizationEnergyOverdrawMaintenance 586.15551185608
scalar OsgEarthNet.uav[10] utilizationCountMissions 14
scalar OsgEarthNet.uav[10] utilizationCountManeuversMission 248
scalar OsgEarthNet.uav[10] utilizationCountManeuversMaintenance 28
scalar OsgEarthNet.uav[10] utilizationCountChargeState 14
scalar OsgEarthNet.uav[10] utilizationCountOverdrawnAfterMission 6
scalar OsgEarthNet.uav[10] utilizationCountIdleState 14
scalar OsgEarthNet.uav[10] utilizationFail 0
scalar OsgEarthNet.uav[10] simulationTime 119728.62246044
scalar OsgEarthNet.uav[11] utilizationSecMission 13215.746985257
scalar OsgEarthNet.uav[11] utilizationSecMaintenance 8083.8713178182
scalar OsgEarthNet.uav[11] utilizationSecCharge 75877.949359525
scalar OsgEarthNet.uav[11] utilizationSecIdle 22551.053797836
scalar OsgEarthNet.uav[11] utilizationEnergyMission 65359.108154297
scalar OsgEarthNet.uav[11] utilizationEnergyMaintenance 36988.523715973
scalar OsgEarthNet.uav[11] utilizationEnergyCharge 101513.01611328
scalar OsgEarthNet.uav[11] utilizationEnergyOverdrawMission 0
scalar OsgEarthNet.uav[11] utilizationEnergyOverdrawMaintenance 731.97958183289
scalar OsgEarthNet.uav[11] utilizationCountMissions 20
scalar OsgEarthNet.uav[11] utilizationCountManeuversMission 463
scalar OsgEarthNet.uav[11] utilizationCountManeuversMaintenance 40
scalar OsgEarthNet.uav[11] utilizationCountChargeState 20
scalar OsgEarthNet.uav[11] utilizationCountOverdrawnAfterMission 9
scalar OsgEarthNet.uav[11] utilizationCountIdleState 20
scalar OsgEarthNet.uav[11] utilizationFail 0
scalar OsgEarthNet.uav[11] simulationTime 119728.62246044
scalar OsgEarthNet.uav[12] utilizationSecMission 13769.492683795
scalar OsgEarthNet.uav[12] utilizationSecMaintenance 8757.1267766418
scalar OsgEarthNet.uav[12] utilizationSecCharge 76770
scalar OsgEarthNet.uav[12] utilizationSecIdle 20432.002
scalar OsgEarthNet.uav[12] utilizationEnergyMission 66119.875198338
scalar OsgEarthNet.uav[12] utilizationEnergyMaintenance 40584.432846069
scalar OsgEarthNet.uav[12] utilizationEnergyCharge 101566.45751953
scalar OsgEarthNet.uav[12] utilizationEnergyOverdrawMission 0
scalar OsgEarthNet.uav[12] utilizationEnergyOverdrawMaintenance 487.73628807068
scalar OsgEarthNet.uav[12] utilizationCountMissions 20
scalar OsgEarthNet.uav[12] utilizationCountManeuversMission 351
scalar OsgEarthNet.uav[12] utilizationCountManeuversMaintenance 41
scalar OsgEarthNet.uav[12] utilizationCountChargeState 20
scalar OsgEarthNet.uav[12] utilizationCountOverdrawnAfterMission 7
scalar OsgEarthNet.uav[12] utilizationCountIdleState 21
scalar OsgEarthNet.uav[12] utilizationFail 0
scalar OsgEarthNet.uav[12] simulationTime 119728.62246044
scalar OsgEarthNet.uav[13] utilizationSecMission 11193.314328953
scalar OsgEarthNet.uav[13] utilizationSecMaintenance 8862.0908968563
scalar OsgEarthNet.uav[13] utilizationSecCharge 71376.013555649
scalar OsgEarthNet.uav[13] utilizationSecIdle 28297.202678978
scalar OsgEarthNet.uav[13] utilizationEnergyMission 54489.706279755
scalar OsgEarthNet.uav[13] utilizationEnergyMaintenance 40461.460315704
scalar OsgEarthNet.uav[13] utilizationEnergyCharge 94235.815917969
scalar OsgEarthNet.uav[13] utilizationEnergyOverdrawMission 0
scalar OsgEarthNet.uav[13] utilizationEnergyOverdrawMaintenance 821.98575019836
scalar OsgEarthNet.uav[13] utilizationCountMissions 19
scalar OsgEarthNet.uav[13] utilizationCountManeuversMission 346
scalar OsgEarthNet.uav[13] utilizationCountManeuversMaintenance 38
scalar OsgEarthNet.uav[13] utilizationCountChargeState 19
scalar OsgEarthNet.uav[13] utilizationCountOverdrawnAfterMission 6
scalar OsgEarthNet.uav[13] utilizationCountIdleState 19
scalar OsgEarthNet.uav[13] utilizationFail 0
scalar OsgEarthNet.uav[13] simulationTime 119728.62246044
scalar OsgEarthNet.uav[14] utilizationSecMission 12751.983636095
scalar OsgEarthNet.uav[14] utilizationSecMaintenance 10004.637316959
scalar OsgEarthNet.uav[14] utilizationSecCharge 80630
scalar OsgEarthNet.uav[14] utilizationSecIdle 16342.000507383
scalar OsgEarthNet.uav[14] utilizationEnergyMission 62364.995658875
scalar OsgEarthNet.uav[14] utilizationEnergyMaintenance 46677.572204848
scalar OsgEarthNet.uav[14] utilizationEnergyCharge 107043.42041016
scalar OsgEarthNet.uav[14] utilizationEnergyOverdrawMission 0
scalar OsgEarthNet.uav[14] utilizationEnergyOverdrawMaintenance 616.58945465088
scalar OsgEarthNet.uav[14] utilizationCountMissions 21
scalar OsgEarthNet.uav[14] utilizationCountManeuversMission 424
scalar OsgEarthNet.uav[14] utilizationCountManeuversMaintenance 43
scalar OsgEarthNet.uav[14] utilizationCountChargeState 21
scalar OsgEarthNet.uav[14] utilizationCountOverdrawnAfterMission 6
scalar OsgEarthNet.uav[14] utilizationCountIdleState 22
scalar OsgEarthNet.uav[14] utilizationFail 0
scalar OsgEarthNet.uav[14] simulationTime 119728.62246044
scalar OsgEarthNet.uav[15] utilizationSecMission 14313.908589703
scalar OsgEarthNet.uav[15] utilizationSecMaintenance 9036.0128977023
scalar OsgEarthNet.uav[15] utilizationSecCharge 79760
scalar OsgEarthNet.uav[15] utilizationSecIdle 16618.699973031
scalar OsgEarthNet.uav[15] utilizationEnergyMission 68508.302009583
scalar OsgEarthNet.uav[15] utilizationEnergyMaintenance 42922.821061318
scalar OsgEarthNet.uav[15] utilizationEnergyCharge 105493.69677734
scalar OsgEarthNet.uav[15] utilizationEnergyOverdrawMission 0
scalar OsgEarthNet.uav[15] utilizationEnergyOverdrawMaintenance 1539.3913879395
scalar OsgEarthNet.uav[15] utilizationCountMissions 22
scalar OsgEarthNet.uav[15] utilizationCountManeuversMission 405
scalar OsgEarthNet.uav[15] utilizationCountManeuversMaintenance 44
scalar OsgEarthNet.uav[15] utilizationCountChargeState 21
scalar OsgEarthNet.uav[15] utilizationCountOverdrawnAfterMission 5
scalar OsgEarthNet.uav[15] utilizationCountIdleState 22
scalar OsgEarthNet.uav[15] utilizationFail 0
scalar OsgEarthNet.uav[15] simulationTime 119728.62246044
scalar OsgEarthNet.uav[16] utilizationSecMission 12856.860548012
scalar OsgEarthNet.uav[16] utilizationSecMaintenance 7973.0785727756
scalar OsgEarthNet.uav[16] utilizationSecCharge 71059.310479243
scalar OsgEarthNet.uav[16] utilizationSecIdle 27839.371860406
scalar OsgEarthNet.uav[16] utilizationEnergyMission 61628.332294464
scalar OsgEarthNet.uav[16] utilizationEnergyMaintenance 36765.623199463
scalar OsgEarthNet.uav[16] utilizationEnergyCharge 94813.439208984
scalar OsgEarthNet.uav[16] utilizationEnergyOverdrawMission 0
scalar OsgEarthNet.uav[16] utilizationEnergyOverdrawMaintenance 648.14794254303
scalar OsgEarthNet.uav[16] utilizationCountMissions 19
scalar OsgEarthNet.uav[16] utilizationCountManeuversMission 364
scalar OsgEarthNet.uav[16] utilizationCountManeuversMaintenance 38
scalar OsgEarthNet.uav[16] utilizationCountChargeState 19
scalar OsgEarthNet.uav[16] utilizationCountOverdrawnAfterMission 7
scalar OsgEarthNet.uav[16] utilizationCountIdleState 19
scalar OsgEarthNet.uav[16] utilizationFail 0
scalar OsgEarthNet.uav[16] simulationTime 119728.62246044
scalar OsgEarthNet.uav[17] utilizationSecMission 10687.440867304
scalar OsgEarthNet.uav[17] utilizationSecMaintenance 8556.1925558859
scalar OsgEarthNet.uav[17] utilizationSecCharge 66112.980037247
scalar OsgEarthNet.uav[17] utilizationSecIdle 34372.008
scalar OsgEarthNet.uav[17] utilizationEnergyMission 52201.167736053
scalar OsgEarthNet.uav[17] utilizationEnergyMaintenance 40056.504413605
scalar OsgEarthNet.uav[17] utilizationEnergyCharge 88052.805541992
scalar OsgEarthNet.uav[17] utilizationEnergyOverdrawMission 0
scalar OsgEarthNet.uav[17] utilizationEnergyOverdrawMaintenance 968.27783203125
scalar OsgEarthNet.uav[17] utilizationCountMissions 18
scalar OsgEarthNet.uav[17] utilizationCountManeuversMission 371
scalar OsgEarthNet.uav[17] utilizationCountManeuversMaintenance 36
scalar OsgEarthNet.uav[17] utilizationCountChargeState 18
scalar OsgEarthNet.uav[17] utilizationCountOverdrawnAfterMission 11
scalar OsgEarthNet.uav[17] utilizationCountIdleState 18
scalar OsgEarthNet.uav[17] utilizationFail 0
scalar OsgEarthNet.uav[17] simulationTime 119728.62246044
scalar OsgEarthNet.uav[18] utilizationSecMission 1538.1765076869
scalar OsgEarthNet.uav[18] utilizationSecMaintenance 625.10950170532
scalar OsgEarthNet.uav[18] utilizationSecCharge 7690
scalar OsgEarthNet.uav[18] utilizationSecIdle 109875.33545104
scalar OsgEarthNet.uav[18] utilizationEnergyMission 7239.9410324097
scalar OsgEarthNet.uav[18] utilizationEnergyMaintenance 2752.6173744202
scalar OsgEarthNet.uav[18] utilizationEnergyCharge 10160.692871094
scalar OsgEarthNet.uav[18] utilizationEnergyOverdrawMission 0
scalar OsgEarthNet.uav[18] utilizationEnergyOverdrawMaintenance 0
scalar OsgEarthNet.uav[18] utilizationCountMissions 2
scalar OsgEarthNet.uav[18] utilizationCountManeuversMission 26
scalar OsgEarthNet.uav[18] utilizationCountManeuversMaintenance 4
scalar OsgEarthNet.uav[18] utilizationCountChargeState 2
scalar OsgEarthNet.uav[18] utilizationCountOverdrawnAfterMission 0
scalar OsgEarthNet.uav[18] utilizationCountIdleState 3
scalar OsgEarthNet.uav[18] utilizationFail 0
scalar OsgEarthNet.uav[18] simulationTime 119728.62246044
scalar OsgEarthNet.uav[19] utilizationSecMission 11969.813446367
scalar OsgEarthNet.uav[19] utilizationSecMaintenance 6957.9765484419
scalar OsgEarthNet.uav[19] utilizationSecCharge 65979.635886505
scalar OsgEarthNet.uav[19] utilizationSecIdle 34821.195579123
scalar OsgEarthNet.uav[19] utilizationEnergyMission 58862.68744278
scalar OsgEarthNet.uav[19] utilizationEnergyMaintenance 32503.461406708
scalar OsgEarthNet.uav[19] utilizationEnergyCharge 87643.279052734
scalar OsgEarthNet.uav[19] utilizationEnergyOverdrawMission 0
scalar OsgEarthNet.uav[19] utilizationEnergyOverdrawMaintenance 599.76895141602
scalar OsgEarthNet.uav[19] utilizationCountMissions 18
scalar OsgEarthNet.uav[19] utilizationCountManeuversMission 333
scalar OsgEarthNet.uav[19] utilizationCountManeuversMaintenance 36
scalar OsgEarthNet.uav[19] utilizationCountChargeState 18
scalar OsgEarthNet.uav[19] utilizationCountOverdrawnAfterMission 3
scalar OsgEarthNet.uav[19] utilizationCountIdleState 18
scalar OsgEarthNet.uav[19] utilizationFail 0
scalar OsgEarthNet.uav[19] simulationTime 119728.62246044
scalar OsgEarthNet.uav[20] utilizationSecMission 13697.102859435
scalar OsgEarthNet.uav[20] utilizationSecMaintenance 8636.6866942684
scalar OsgEarthNet.uav[20] utilizationSecCharge 77962.828906734
scalar OsgEarthNet.uav[20] utilizationSecIdle 19432.003
scalar OsgEarthNet.uav[20] utilizationEnergyMission 66594.720638275
scalar OsgEarthNet.uav[20] utilizationEnergyMaintenance 40064.739730835
scalar OsgEarthNet.uav[20] utilizationEnergyCharge 104125.21362305
scalar OsgEarthNet.uav[20] utilizationEnergyOverdrawMission 0
scalar OsgEarthNet.uav[20] utilizationEnergyOverdrawMaintenance 807.60819721222
scalar OsgEarthNet.uav[20] utilizationCountMissions 21
scalar OsgEarthNet.uav[20] utilizationCountManeuversMission 480
scalar OsgEarthNet.uav[20] utilizationCountManeuversMaintenance 42
scalar OsgEarthNet.uav[20] utilizationCountChargeState 21
scalar OsgEarthNet.uav[20] utilizationCountOverdrawnAfterMission 6
scalar OsgEarthNet.uav[20] utilizationCountIdleState 21
scalar OsgEarthNet.uav[20] utilizationFail 0
scalar OsgEarthNet.uav[20] simulationTime 119728.62246044
scalar OsgEarthNet.uav[21] utilizationSecMission 13420.286431872
scalar OsgEarthNet.uav[21] utilizationSecMaintenance 9808.8386558359
scalar OsgEarthNet.uav[21] utilizationSecCharge 80907.495372729
scalar OsgEarthNet.uav[21] utilizationSecIdle 15592.001
scalar OsgEarthNet.uav[21] utilizationEnergyMission 66739.048740387
scalar OsgEarthNet.uav[21] utilizationEnergyMaintenance 46023.507144928
scalar OsgEarthNet.uav[21] utilizationEnergyCharge 107592.38513184
scalar OsgEarthNet.uav[21] utilizationEnergyOverdrawMission 0
scalar OsgEarthNet.uav[21] utilizationEnergyOverdrawMaintenance 1678.0799980164
scalar OsgEarthNet.uav[21] utilizationCountMissions 22
scalar OsgEarthNet.uav[21] utilizationCountManeuversMission 496
scalar OsgEarthNet.uav[21] utilizationCountManeuversMaintenance 44
scalar OsgEarthNet.uav[21] utilizationCountChargeState 22
scalar OsgEarthNet.uav[21] utilizationCountOverdrawnAfterMission 11
scalar OsgEarthNet.uav[21] utilizationCountIdleState 22
scalar OsgEarthNet.uav[21] utilizationFail 0
scalar OsgEarthNet.uav[21] simulationTime 119728.62246044
scalar OsgEarthNet.uav[22] utilizationSecMission 640
scalar OsgEarthNet.uav[22] utilizationSecMaintenance 390.60696956236
scalar OsgEarthNet.uav[22] utilizationSecCharge 3920
scalar OsgEarthNet.uav[22] utilizationSecIdle 114778.01449087
scalar OsgEarthNet.uav[22] utilizationEnergyMission 3082.6945266724
scalar OsgEarthNet.uav[22] utilizationEnergyMaintenance 1849.0390129089
scalar OsgEarthNet.uav[22] utilizationEnergyCharge 5200
scalar OsgEarthNet.uav[22] utilizationEnergyOverdrawMission 0
scalar OsgEarthNet.uav[22] utilizationEnergyOverdrawMaintenance 10.183137893677
scalar OsgEarthNet.uav[22] utilizationCountMissions 1
scalar OsgEarthNet.uav[22] utilizationCountManeuversMission 32
scalar OsgEarthNet.uav[22] utilizationCountManeuversMaintenance 2
scalar OsgEarthNet.uav[22] utilizationCountChargeState 1
scalar OsgEarthNet.uav[22] utilizationCountOverdrawnAfterMission 1
scalar OsgEarthNet.uav[22] utilizationCountIdleState 2
scalar OsgEarthNet.uav[22] utilizationFail 0
scalar OsgEarthNet.uav[22] simulationTime 119728.62246044
scalar OsgEarthNet.uav[23] utilizationSecMission 660
scalar OsgEarthNet.uav[23] utilizationSecMaintenance 403.8841636065
scalar OsgEarthNet.uav[23] utilizationSecCharge 3900
scalar OsgEarthNet.uav[23] utilizationSecIdle 114764.73729683
scalar OsgEarthNet.uav[23] utilizationEnergyMission 3413.9799880981
scalar OsgEarthNet.uav[23] utilizationEnergyMaintenance 2022.9460411072
scalar OsgEarthNet.uav[23] utilizationEnergyCharge 5200
scalar OsgEarthNet.uav[23] utilizationEnergyOverdrawMission 0
scalar OsgEarthNet.uav[23] utilizationEnergyOverdrawMaintenance 199.68402099609
scalar OsgEarthNet.uav[23] utilizationCountMissions 1
scalar OsgEarthNet.uav[23] utilizationCountManeuversMission 33
scalar OsgEarthNet.uav[23] utilizationCountManeuversMaintenance 2
scalar OsgEarthNet.uav[23] utilizationCountChargeState 1
scalar OsgEarthNet.uav[23] utilizationCountOverdrawnAfterMission 1
scalar OsgEarthNet.uav[23] utilizationCountIdleState 2
scalar OsgEarthNet.uav[23] utilizationFail 0
scalar OsgEarthNet.uav[23] simulationTime 119728.62246044
scalar OsgEarthNet.uav[24] utilizationSecMission 500
scalar OsgEarthNet.uav[24] utilizationSecMaintenance 527.16988087142
scalar OsgEarthNet.uav[24] utilizationSecCharge 3870
scalar OsgEarthNet.uav[24] utilizationSecIdle 114831.45157957
scalar OsgEarthNet.uav[24] utilizationEnergyMission 2670.9697608948
scalar OsgEarthNet.uav[24] utilizationEnergyMaintenance 2603.0076026917
scalar OsgEarthNet.uav[24] utilizationEnergyCharge 5200
scalar OsgEarthNet.uav[24] utilizationEnergyOverdrawMission 0
scalar OsgEarthNet.uav[24] utilizationEnergyOverdrawMaintenance 116.86673736572
scalar OsgEarthNet.uav[24] utilizationCountMissions 1
scalar OsgEarthNet.uav[24] utilizationCountManeuversMission 25
scalar OsgEarthNet.uav[24] utilizationCountManeuversMaintenance 2
scalar OsgEarthNet.uav[24] utilizationCountChargeState 1
scalar OsgEarthNet.uav[24] utilizationCountOverdrawnAfterMission 1
scalar OsgEarthNet.uav[24] utilizationCountIdleState 2
scalar OsgEarthNet.uav[24] utilizationFail 0
scalar OsgEarthNet.uav[24] simulationTime 119728.62246044
scalar OsgEarthNet.uav[25] utilizationSecMission 2804.7949997858
scalar OsgEarthNet.uav[25] utilizationSecMaintenance 2580.6858386658
scalar OsgEarthNet.uav[25] utilizationSecCharge 19030
scalar OsgEarthNet.uav[25] utilizationSecIdle 95313.140621985
scalar OsgEarthNet.uav[25] utilizationEnergyMission 13669.345569611
scalar OsgEarthNet.uav[25] utilizationEnergyMaintenance 11868.519573212
scalar OsgEarthNet.uav[25] utilizationEnergyCharge 25134.1875
scalar OsgEarthNet.uav[25] utilizationEnergyOverdrawMission 0
scalar OsgEarthNet.uav[25] utilizationEnergyOverdrawMaintenance 140.66139221191
scalar OsgEarthNet.uav[25] utilizationCountMissions 5
scalar OsgEarthNet.uav[25] utilizationCountManeuversMission 102
scalar OsgEarthNet.uav[25] utilizationCountManeuversMaintenance 10
scalar OsgEarthNet.uav[25] utilizationCountChargeState 5
scalar OsgEarthNet.uav[25] utilizationCountOverdrawnAfterMission 1
scalar OsgEarthNet.uav[25] utilizationCountIdleState 6
scalar OsgEarthNet.uav[25] utilizationFail 0
scalar OsgEarthNet.uav[25] simulationTime 119728.62246044
scalar OsgEarthNet.uav[26] utilizationSecMission 13887.062962933
scalar OsgEarthNet.uav[26] utilizationSecMaintenance 8887.5401686399
scalar OsgEarthNet.uav[26] utilizationSecCharge 77434.075060164
scalar OsgEarthNet.uav[26] utilizationSecIdle 19519.9432687
scalar OsgEarthNet.uav[26] utilizationEnergyMission 67733.231746674
scalar OsgEarthNet.uav[26] utilizationEnergyMaintenance 41575.079902649
scalar OsgEarthNet.uav[26] utilizationEnergyCharge 102967.52062988
scalar OsgEarthNet.uav[26] utilizationEnergyOverdrawMission 0
scalar OsgEarthNet.uav[26] utilizationEnergyOverdrawMaintenance 690.03339862823
scalar OsgEarthNet.uav[26] utilizationCountMissions 21
scalar OsgEarthNet.uav[26] utilizationCountManeuversMission 370
scalar OsgEarthNet.uav[26] utilizationCountManeuversMaintenance 42
scalar OsgEarthNet.uav[26] utilizationCountChargeState 21
scalar OsgEarthNet.uav[26] utilizationCountOverdrawnAfterMission 6
scalar OsgEarthNet.uav[26] utilizationCountIdleState 21
scalar OsgEarthNet.uav[26] utilizationFail 0
scalar OsgEarthNet.uav[26] simulationTime 119728.62246044
scalar OsgEarthNet.uav[27] utilizationSecMission 9116.6198774526
scalar OsgEarthNet.uav[27] utilizationSecMaintenance 5911.5800819181
scalar OsgEarthNet.uav[27] utilizationSecCharge 53550
scalar OsgEarthNet.uav[27] utilizationSecIdle 51150.421501066
scalar OsgEarthNet.uav[27] utilizationEnergyMission 45196.244480133
scalar OsgEarthNet.uav[27] utilizationEnergyMaintenance 27548.972064972
scalar OsgEarthNet.uav[27] utilizationEnergyCharge 71032.577636719
scalar OsgEarthNet.uav[27] utilizationEnergyOverdrawMission 0
scalar OsgEarthNet.uav[27] utilizationEnergyOverdrawMaintenance 547.96898651123
scalar OsgEarthNet.uav[27] utilizationCountMissions 14
scalar OsgEarthNet.uav[27] utilizationCountManeuversMission 361
scalar OsgEarthNet.uav[27] utilizationCountManeuversMaintenance 28
scalar OsgEarthNet.uav[27] utilizationCountChargeState 14
scalar OsgEarthNet.uav[27] utilizationCountOverdrawnAfterMission 4
scalar OsgEarthNet.uav[27] utilizationCountIdleState 15
scalar OsgEarthNet.uav[27] utilizationFail 0
scalar OsgEarthNet.uav[27] simulationTime 119728.62246044
scalar OsgEarthNet.uav[28] utilizationSecMission 11093.634589606
scalar OsgEarthNet.uav[28] utilizationSecMaintenance 7110.1216184397
scalar OsgEarthNet.uav[28] utilizationSecCharge 64820
scalar OsgEarthNet.uav[28] utilizationSecIdle 36704.865252391
scalar OsgEarthNet.uav[28] utilizationEnergyMission 52666.767494202
scalar OsgEarthNet.uav[28] utilizationEnergyMaintenance 33283.794963837
scalar OsgEarthNet.uav[28] utilizationEnergyCharge 85880.083496094
scalar OsgEarthNet.uav[28] utilizationEnergyOverdrawMission 0
scalar OsgEarthNet.uav[28] utilizationEnergyOverdrawMaintenance 711.61573791504
scalar OsgEarthNet.uav[28] utilizationCountMissions 17
scalar OsgEarthNet.uav[28] utilizationCountManeuversMission 345
scalar OsgEarthNet.uav[28] utilizationCountManeuversMaintenance 34
scalar OsgEarthNet.uav[28] utilizationCountChargeState 17
scalar OsgEarthNet.uav[28] utilizationCountOverdrawnAfterMission 4
scalar OsgEarthNet.uav[28] utilizationCountIdleState 18
scalar OsgEarthNet.uav[28] utilizationFail 0
scalar OsgEarthNet.uav[28] simulationTime 119728.62246044
scalar OsgEarthNet.uav[29] utilizationSecMission 13652.365118916
scalar OsgEarthNet.uav[29] utilizationSecMaintenance 9484.2563415213
scalar OsgEarthNet.uav[29] utilizationSecCharge 80800
scalar OsgEarthNet.uav[29] utilizationSecIdle 15792
scalar OsgEarthNet.uav[29] utilizationEnergyMission 66210.125934575
scalar OsgEarthNet.uav[29] utilizationEnergyMaintenance 45037.706077576
scalar OsgEarthNet.uav[29] utilizationEnergyCharge 107025.99755859
scalar OsgEarthNet.uav[29] utilizationEnergyOverdrawMission 0
scalar OsgEarthNet.uav[29] utilizationEnergyOverdrawMaintenance 1090.3345489502
scalar OsgEarthNet.uav[29] utilizationCountMissions 21
scalar OsgEarthNet.uav[29] utilizationCountManeuversMission 420
scalar OsgEarthNet.uav[29] utilizationCountManeuversMaintenance 43
scalar OsgEarthNet.uav[29] utilizationCountChargeState 21
scalar OsgEarthNet.uav[29] utilizationCountOverdrawnAfterMission 9
scalar OsgEarthNet.uav[29] utilizationCountIdleState 22
scalar OsgEarthNet.uav[29] utilizationFail 0
scalar OsgEarthNet.uav[29] simulationTime 119728.62246044
scalar OsgEarthNet.uav[30] utilizationSecMission 12621.350224015
scalar OsgEarthNet.uav[30] utilizationSecMaintenance 9024.3496936547
scalar OsgEarthNet.uav[30] utilizationSecCharge 76610
scalar OsgEarthNet.uav[30] utilizationSecIdle 21472.921542767
scalar OsgEarthNet.uav[30] utilizationEnergyMission 59739.22518158
scalar OsgEarthNet.uav[30] utilizationEnergyMaintenance 42147.214832306
scalar OsgEarthNet.uav[30] utilizationEnergyCharge 101557.70800781
scalar OsgEarthNet.uav[30] utilizationEnergyOverdrawMission 0
scalar OsgEarthNet.uav[30] utilizationEnergyOverdrawMaintenance 926.24495315552
scalar OsgEarthNet.uav[30] utilizationCountMissions 20
scalar OsgEarthNet.uav[30] utilizationCountManeuversMission 359
scalar OsgEarthNet.uav[30] utilizationCountManeuversMaintenance 40
scalar OsgEarthNet.uav[30] utilizationCountChargeState 20
scalar OsgEarthNet.uav[30] utilizationCountOverdrawnAfterMission 7
scalar OsgEarthNet.uav[30] utilizationCountIdleState 21
scalar OsgEarthNet.uav[30] utilizationFail 0
scalar OsgEarthNet.uav[30] simulationTime 119728.62246044
scalar OsgEarthNet.uav[31] utilizationSecMission 13526.4660048
scalar OsgEarthNet.uav[31] utilizationSecMaintenance 8046.2246905417
scalar OsgEarthNet.uav[31] utilizationSecCharge 76640
scalar OsgEarthNet.uav[31] utilizationSecIdle 21515.930765096
scalar OsgEarthNet.uav[31] utilizationEnergyMission 65224.464820862
scalar OsgEarthNet.uav[31] utilizationEnergyMaintenance 37494.712657928
scalar OsgEarthNet.uav[31] utilizationEnergyCharge 101746.25146484
scalar OsgEarthNet.uav[31] utilizationEnergyOverdrawMission 0
scalar OsgEarthNet.uav[31] utilizationEnergyOverdrawMaintenance 1376.3779640198
scalar OsgEarthNet.uav[31] utilizationCountMissions 20
scalar OsgEarthNet.uav[31] utilizationCountManeuversMission 439
scalar OsgEarthNet.uav[31] utilizationCountManeuversMaintenance 40
scalar OsgEarthNet.uav[31] utilizationCountChargeState 20
scalar OsgEarthNet.uav[31] utilizationCountOverdrawnAfterMission 11
scalar OsgEarthNet.uav[31] utilizationCountIdleState 21
scalar OsgEarthNet.uav[31] utilizationFail 0
scalar OsgEarthNet.uav[31] simulationTime 119728.62246044
scalar OsgEarthNet.uav[32] utilizationSecMission 694.00169469977
scalar OsgEarthNet.uav[32] utilizationSecMaintenance 338.49695459722
scalar OsgEarthNet.uav[32] utilizationSecCharge 3700
scalar OsgEarthNet.uav[32] utilizationSecIdle 114996.12281114
scalar OsgEarthNet.uav[32] utilizationEnergyMission 3232.3389282227
scalar OsgEarthNet.uav[32] utilizationEnergyMaintenance 1597.0203971863
scalar OsgEarthNet.uav[32] utilizationEnergyCharge 4839.3549804688
scalar OsgEarthNet.uav[32] utilizationEnergyOverdrawMission 0
scalar OsgEarthNet.uav[32] utilizationEnergyOverdrawMaintenance 0
scalar OsgEarthNet.uav[32] utilizationCountMissions 1
scalar OsgEarthNet.uav[32] utilizationCountManeuversMission 13
scalar OsgEarthNet.uav[32] utilizationCountManeuversMaintenance 2
scalar OsgEarthNet.uav[32] utilizationCountChargeState 1
scalar OsgEarthNet.uav[32] utilizationCountOverdrawnAfterMission 0
scalar OsgEarthNet.uav[32] utilizationCountIdleState 2
scalar OsgEarthNet.uav[32] utilizationFail 0
scalar OsgEarthNet.uav[32] simulationTime 119728.62246044
scalar OsgEarthNet.uav[33] utilizationSecMission 640
scalar OsgEarthNet.uav[33] utilizationSecMaintenance 383.8841636065
scalar OsgEarthNet.uav[33] utilizationSecCharge 3870
scalar OsgEarthNet.uav[33] utilizationSecIdle 114834.73729683
scalar OsgEarthNet.uav[33] utilizationEnergyMission 3215.4483680725
scalar OsgEarthNet.uav[33] utilizationEnergyMaintenance 1914.173374176
scalar OsgEarthNet.uav[33] utilizationEnergyCharge 5200
scalar OsgEarthNet.uav[33] utilizationEnergyOverdrawMission 0
scalar OsgEarthNet.uav[33] utilizationEnergyOverdrawMaintenance 124.6964263916
scalar OsgEarthNet.uav[33] utilizationCountMissions 1
scalar OsgEarthNet.uav[33] utilizationCountManeuversMission 32
scalar OsgEarthNet.uav[33] utilizationCountManeuversMaintenance 2
scalar OsgEarthNet.uav[33] utilizationCountChargeState 1
scalar OsgEarthNet.uav[33] utilizationCountOverdrawnAfterMission 1
scalar OsgEarthNet.uav[33] utilizationCountIdleState 2
scalar OsgEarthNet.uav[33] utilizationFail 0
scalar OsgEarthNet.uav[33] simulationTime 119728.62246044
scalar OsgEarthNet.uav[34] utilizationSecMission 11059.018560634
scalar OsgEarthNet.uav[34] utilizationSecMaintenance 6251.7592868845
scalar OsgEarthNet.uav[34] utilizationSecCharge 57150
scalar OsgEarthNet.uav[34] utilizationSecIdle 45370.108082005
scalar OsgEarthNet.uav[34] utilizationEnergyMission 50804.62411499
scalar OsgEarthNet.uav[34] utilizationEnergyMaintenance 28285.681499481
scalar OsgEarthNet.uav[34] utilizationEnergyCharge 75566.005371094
scalar OsgEarthNet.uav[34] utilizationEnergyOverdrawMission 0
scalar OsgEarthNet.uav[34] utilizationEnergyOverdrawMaintenance 212.47647619247
scalar OsgEarthNet.uav[34] utilizationCountMissions 15
scalar OsgEarthNet.uav[34] utilizationCountManeuversMission 258
scalar OsgEarthNet.uav[34] utilizationCountManeuversMaintenance 31
scalar OsgEarthNet.uav[34] utilizationCountChargeState 15
scalar OsgEarthNet.uav[34] utilizationCountOverdrawnAfterMission 3
scalar OsgEarthNet.uav[34] utilizationCountIdleState 16
scalar OsgEarthNet.uav[34] utilizationFail 0
scalar OsgEarthNet.uav[34] simulationTime 119728.62246044
scalar OsgEarthNet.uav[35] utilizationSecMission 13525.139322701
scalar OsgEarthNet.uav[35] utilizationSecMaintenance 8952.1428929522
scalar OsgEarthNet.uav[35] utilizationSecCharge 77244.312407493
scalar OsgEarthNet.uav[35] utilizationSecIdle 20007.026837291
scalar OsgEarthNet.uav[35] utilizationEnergyMission 65429.077777863
scalar OsgEarthNet.uav[35] utilizationEnergyMaintenance 42150.991176605
scalar OsgEarthNet.uav[35] utilizationEnergyCharge 102585.91894531
scalar OsgEarthNet.uav[35] utilizationEnergyOverdrawMission 0
scalar OsgEarthNet.uav[35] utilizationEnergyOverdrawMaintenance 450.17040252686
scalar OsgEarthNet.uav[35] utilizationCountMissions 21
scalar OsgEarthNet.uav[35] utilizationCountManeuversMission 417
scalar OsgEarthNet.uav[35] utilizationCountManeuversMaintenance 42
scalar OsgEarthNet.uav[35] utilizationCountChargeState 21
scalar OsgEarthNet.uav[35] utilizationCountOverdrawnAfterMission 7
scalar OsgEarthNet.uav[35] utilizationCountIdleState 21
scalar OsgEarthNet.uav[35] utilizationFail 0
scalar OsgEarthNet.uav[35] simulationTime 119728.62246044
scalar OsgEarthNet.uav[36] utilizationSecMission 640
scalar OsgEarthNet.uav[36] utilizationSecMaintenance 363.8841636065
scalar OsgEarthNet.uav[36] utilizationSecCharge 3860
scalar OsgEarthNet.uav[36] utilizationSecIdle 114864.73729683
scalar OsgEarthNet.uav[36] utilizationEnergyMission 3238.5596313477
scalar OsgEarthNet.uav[36] utilizationEnergyMaintenance 1700.1157341003
scalar OsgEarthNet.uav[36] utilizationEnergyCharge 5142.0668945312
scalar OsgEarthNet.uav[36] utilizationEnergyOverdrawMission 0
scalar OsgEarthNet.uav[36] utilizationEnergyOverdrawMaintenance 0
scalar OsgEarthNet.uav[36] utilizationCountMissions 1
scalar OsgEarthNet.uav[36] utilizationCountManeuversMission 32
scalar OsgEarthNet.uav[36] utilizationCountManeuversMaintenance 2
scalar OsgEarthNet.uav[36] utilizationCountChargeState 1
scalar OsgEarthNet.uav[36] utilizationCountOverdrawnAfterMission 0
scalar OsgEarthNet.uav[36] utilizationCountIdleState 2
scalar OsgEarthNet.uav[36] utilizationFail 0
scalar OsgEarthNet.uav[36] simulationTime 119728.62246044
scalar OsgEarthNet.uav[37] utilizationSecMission 595.61789681617
scalar OsgEarthNet.uav[37] utilizationSecMaintenance 502.08255552328
scalar OsgEarthNet.uav[37] utilizationSecCharge 3860
scalar OsgEarthNet.uav[37] utilizationSecIdle 114770.9210081
scalar OsgEarthNet.uav[37] utilizationEnergyMission 2906.3140106201
scalar OsgEarthNet.uav[37] utilizationEnergyMaintenance 2405.453289032
scalar OsgEarthNet.uav[37] utilizationEnergyCharge 5154.7934570312
scalar OsgEarthNet.uav[37] utilizationEnergyOverdrawMission 0
scalar OsgEarthNet.uav[37] utilizationEnergyOverdrawMaintenance 0
scalar OsgEarthNet.uav[37] utilizationCountMissions 1
scalar OsgEarthNet.uav[37] utilizationCountManeuversMission 11
scalar OsgEarthNet.uav[37] utilizationCountManeuversMaintenance 2
scalar OsgEarthNet.uav[37] utilizationCountChargeState 1
scalar OsgEarthNet.uav[37] utilizationCountOverdrawnAfterMission 0
scalar OsgEarthNet.uav[37] utilizationCountIdleState 2
scalar OsgEarthNet.uav[37] utilizationFail 0
scalar OsgEarthNet.uav[37] simulationTime 119728.62246044
scalar OsgEarthNet.uav[38] utilizationSecMission 7559.483169401
scalar OsgEarthNet.uav[38] utilizationSecMaintenance 5293.7025694126
scalar OsgEarthNet.uav[38] utilizationSecCharge 45530
scalar OsgEarthNet.uav[38] utilizationSecIdle 61345.435721623
scalar OsgEarthNet.uav[38] utilizationEnergyMission 36162.000652313
scalar OsgEarthNet.uav[38] utilizationEnergyMaintenance 24802.730270386
scalar OsgEarthNet.uav[38] utilizationEnergyCharge 60110.788574219
scalar OsgEarthNet.uav[38] utilizationEnergyOverdrawMission 0
scalar OsgEarthNet.uav[38] utilizationEnergyOverdrawMaintenance 1435.9271793365
scalar OsgEarthNet.uav[38] utilizationCountMissions 12
scalar OsgEarthNet.uav[38] utilizationCountManeuversMission 231
scalar OsgEarthNet.uav[38] utilizationCountManeuversMaintenance 24
scalar OsgEarthNet.uav[38] utilizationCountChargeState 12
scalar OsgEarthNet.uav[38] utilizationCountOverdrawnAfterMission 6
scalar OsgEarthNet.uav[38] utilizationCountIdleState 13
scalar OsgEarthNet.uav[38] utilizationFail 0
scalar OsgEarthNet.uav[38] simulationTime 119728.62246044
scalar OsgEarthNet.uav[39] utilizationSecMission 750.20472747826
scalar OsgEarthNet.uav[39] utilizationSecMaintenance 355.27562361416
scalar OsgEarthNet.uav[39] utilizationSecCharge 3810
scalar OsgEarthNet.uav[39] utilizationSecIdle 114813.14110934
scalar OsgEarthNet.uav[39] utilizationEnergyMission 3321.018157959
scalar OsgEarthNet.uav[39] utilizationEnergyMaintenance 1724.6942253113
scalar OsgEarthNet.uav[39] utilizationEnergyCharge 5045.32421875
scalar OsgEarthNet.uav[39] utilizationEnergyOverdrawMission 0
scalar OsgEarthNet.uav[39] utilizationEnergyOverdrawMaintenance 0
scalar OsgEarthNet.uav[39] utilizationCountMissions 1
scalar OsgEarthNet.uav[39] utilizationCountManeuversMission 11
scalar OsgEarthNet.uav[39] utilizationCountManeuversMaintenance 2
scalar OsgEarthNet.uav[39] utilizationCountChargeState 1
scalar OsgEarthNet.uav[39] utilizationCountOverdrawnAfterMission 0
scalar OsgEarthNet.uav[39] utilizationCountIdleState 2
scalar OsgEarthNet.uav[39] utilizationFail 0
scalar OsgEarthNet.uav[39] simulationTime 119728.62246044
scalar OsgEarthNet.uav[40] utilizationSecMission 4181.4507428345
scalar OsgEarthNet.uav[40] utilizationSecMaintenance 3583.7810843676
scalar OsgEarthNet.uav[40] utilizationSecCharge 24435.789596301
scalar OsgEarthNet.uav[40] utilizationSecIdle 87527.600036934
scalar OsgEarthNet.uav[40] utilizationEnergyMission 19737.537406921
scalar OsgEarthNet.uav[40] utilizationEnergyMaintenance 16347.506092072
scalar OsgEarthNet.uav[40] utilizationEnergyCharge 33054.494384766
scalar OsgEarthNet.uav[40] utilizationEnergyOverdrawMission 0
scalar OsgEarthNet.uav[40] utilizationEnergyOverdrawMaintenance 470.89511871338
scalar OsgEarthNet.uav[40] utilizationCountMissions 7
scalar OsgEarthNet.uav[40] utilizationCountManeuversMission 104
scalar OsgEarthNet.uav[40] utilizationCountManeuversMaintenance 14
scalar OsgEarthNet.uav[40] utilizationCountChargeState 7
scalar OsgEarthNet.uav[40] utilizationCountOverdrawnAfterMission 3
scalar OsgEarthNet.uav[40] utilizationCountIdleState 7
scalar OsgEarthNet.uav[40] utilizationFail 0
scalar OsgEarthNet.uav[40] simulationTime 119728.62246044
scalar OsgEarthNet.uav[41] utilizationSecMission 13142.836012629
scalar OsgEarthNet.uav[41] utilizationSecMaintenance 9341.3640219895
scalar OsgEarthNet.uav[41] utilizationSecCharge 80382.419425819
scalar OsgEarthNet.uav[41] utilizationSecIdle 16862.002
scalar OsgEarthNet.uav[41] utilizationEnergyMission 65498.985649109
scalar OsgEarthNet.uav[41] utilizationEnergyMaintenance 42958.281898498
scalar OsgEarthNet.uav[41] utilizationEnergyCharge 106622.45654297
scalar OsgEarthNet.uav[41] utilizationEnergyOverdrawMission 0
scalar OsgEarthNet.uav[41] utilizationEnergyOverdrawMaintenance 689.1283454895
scalar OsgEarthNet.uav[41] utilizationCountMissions 21
scalar OsgEarthNet.uav[41] utilizationCountManeuversMission 496
scalar OsgEarthNet.uav[41] utilizationCountManeuversMaintenance 42
scalar OsgEarthNet.uav[41] utilizationCountChargeState 21
scalar OsgEarthNet.uav[41] utilizationCountOverdrawnAfterMission 6
scalar OsgEarthNet.uav[41] utilizationCountIdleState 21
scalar OsgEarthNet.uav[41] utilizationFail 0
scalar OsgEarthNet.uav[41] simulationTime 119728.62246044
scalar OsgEarthNet.uav[42] utilizationSecMission 12913.611282676
scalar OsgEarthNet.uav[42] utilizationSecMaintenance 9466.1188995998
scalar OsgEarthNet.uav[42] utilizationSecCharge 80096.890278161
scalar OsgEarthNet.uav[42] utilizationSecIdle 17252.001
scalar OsgEarthNet.uav[42] utilizationEnergyMission 63654.638324738
scalar OsgEarthNet.uav[42] utilizationEnergyMaintenance 44183.51770401
scalar OsgEarthNet.uav[42] utilizationEnergyCharge 107384.89160156
scalar OsgEarthNet.uav[42] utilizationEnergyOverdrawMission 0
scalar OsgEarthNet.uav[42] utilizationEnergyOverdrawMaintenance 1992.930973053
scalar OsgEarthNet.uav[42] utilizationCountMissions 21
scalar OsgEarthNet.uav[42] utilizationCountManeuversMission 441
scalar OsgEarthNet.uav[42] utilizationCountManeuversMaintenance 42
scalar OsgEarthNet.uav[42] utilizationCountChargeState 21
scalar OsgEarthNet.uav[42] utilizationCountOverdrawnAfterMission 12
scalar OsgEarthNet.uav[42] utilizationCountIdleState 21
scalar OsgEarthNet.uav[42] utilizationFail 0
scalar OsgEarthNet.uav[42] simulationTime 119728.62246044
scalar OsgEarthNet.uav[43] utilizationSecMission 13693.901374247
scalar OsgEarthNet.uav[43] utilizationSecMaintenance 8699.9098873927
scalar OsgEarthNet.uav[43] utilizationSecCharge 79432.808198797
scalar OsgEarthNet.uav[43] utilizationSecIdle 17902.002
scalar OsgEarthNet.uav[43] utilizationEnergyMission 67510.65063858
scalar OsgEarthNet.uav[43] utilizationEnergyMaintenance 40471.698577881
scalar OsgEarthNet.uav[43] utilizationEnergyCharge 106047.23486328
scalar OsgEarthNet.uav[43] utilizationEnergyOverdrawMission 0
scalar OsgEarthNet.uav[43] utilizationEnergyOverdrawMaintenance 957.47967529297
scalar OsgEarthNet.uav[43] utilizationCountMissions 21
scalar OsgEarthNet.uav[43] utilizationCountManeuversMission 460
scalar OsgEarthNet.uav[43] utilizationCountManeuversMaintenance 42
scalar OsgEarthNet.uav[43] utilizationCountChargeState 21
scalar OsgEarthNet.uav[43] utilizationCountOverdrawnAfterMission 6
scalar OsgEarthNet.uav[43] utilizationCountIdleState 21
scalar OsgEarthNet.uav[43] utilizationFail 0
scalar OsgEarthNet.uav[43] simulationTime 119728.62246044
scalar OsgEarthNet.uav[44] utilizationSecMission 1227.0005963236
scalar OsgEarthNet.uav[44] utilizationSecMaintenance 814.12472702523
scalar OsgEarthNet.uav[44] utilizationSecCharge 7410
scalar OsgEarthNet.uav[44] utilizationSecIdle 110277.49613709
scalar OsgEarthNet.uav[44] utilizationEnergyMission 5674.2297821045
scalar OsgEarthNet.uav[44] utilizationEnergyMaintenance 3983.7074928284
scalar OsgEarthNet.uav[44] utilizationEnergyCharge 9657.9384765625
scalar OsgEarthNet.uav[44] utilizationEnergyOverdrawMission 0
scalar OsgEarthNet.uav[44] utilizationEnergyOverdrawMaintenance 0
scalar OsgEarthNet.uav[44] utilizationCountMissions 2
scalar OsgEarthNet.uav[44] utilizationCountManeuversMission 21
scalar OsgEarthNet.uav[44] utilizationCountManeuversMaintenance 4
scalar OsgEarthNet.uav[44] utilizationCountChargeState 2
scalar OsgEarthNet.uav[44] utilizationCountOverdrawnAfterMission 0
scalar OsgEarthNet.uav[44] utilizationCountIdleState 3
scalar OsgEarthNet.uav[44] utilizationFail 0
scalar OsgEarthNet.uav[44] simulationTime 119728.62246044
scalar OsgEarthNet.uav[45] utilizationSecMission 14515.89493721
scalar OsgEarthNet.uav[45] utilizationSecMaintenance 9393.1951760938
scalar OsgEarthNet.uav[45] utilizationSecCharge 81357.531347133
scalar OsgEarthNet.uav[45] utilizationSecIdle 14462
scalar OsgEarthNet.uav[45] utilizationEnergyMission 68722.93075037
scalar OsgEarthNet.uav[45] utilizationEnergyMaintenance 44186.428928375
scalar OsgEarthNet.uav[45] utilizationEnergyCharge 107958.42712402
scalar OsgEarthNet.uav[45] utilizationEnergyOverdrawMission 0
scalar OsgEarthNet.uav[45] utilizationEnergyOverdrawMaintenance 1254.418598175
scalar OsgEarthNet.uav[45] utilizationCountMissions 22
scalar OsgEarthNet.uav[45] utilizationCountManeuversMission 384
scalar OsgEarthNet.uav[45] utilizationCountManeuversMaintenance 43
scalar OsgEarthNet.uav[45] utilizationCountChargeState 22
scalar OsgEarthNet.uav[45] utilizationCountOverdrawnAfterMission 9
scalar OsgEarthNet.uav[45] utilizationCountIdleState 22
scalar OsgEarthNet.uav[45] utilizationFail 0
scalar OsgEarthNet.uav[45] simulationTime 119728.62246044
scalar OsgEarthNet.uav[46] utilizationSecMission 750.20472747825
scalar OsgEarthNet.uav[46] utilizationSecMaintenance 373.25723311718
scalar OsgEarthNet.uav[46] utilizationSecCharge 3770
scalar OsgEarthNet.uav[46] utilizationSecIdle 114835.15949984
scalar OsgEarthNet.uav[46] utilizationEnergyMission 3376.2207489014
scalar OsgEarthNet.uav[46] utilizationEnergyMaintenance 1643.9666976929
scalar OsgEarthNet.uav[46] utilizationEnergyCharge 4992.5063476562
scalar OsgEarthNet.uav[46] utilizationEnergyOverdrawMission 0
scalar OsgEarthNet.uav[46] utilizationEnergyOverdrawMaintenance 0
scalar OsgEarthNet.uav[46] utilizationCountMissions 1
scalar OsgEarthNet.uav[46] utilizationCountManeuversMission 11
scalar OsgEarthNet.uav[46] utilizationCountManeuversMaintenance 2
scalar OsgEarthNet.uav[46] utilizationCountChargeState 1
scalar OsgEarthNet.uav[46] utilizationCountOverdrawnAfterMission 0
scalar OsgEarthNet.uav[46] utilizationCountIdleState 2
scalar OsgEarthNet.uav[46] utilizationFail 0
scalar OsgEarthNet.uav[46] simulationTime 119728.62246044
scalar OsgEarthNet.uav[47] utilizationSecMission 500
scalar OsgEarthNet.uav[47] utilizationSecMaintenance 547.16988087142
scalar OsgEarthNet.uav[47] utilizationSecCharge 3890
scalar OsgEarthNet.uav[47] utilizationSecIdle 114791.45157957
scalar OsgEarthNet.uav[47] utilizationEnergyMission 2352.6225585938
scalar OsgEarthNet.uav[47] utilizationEnergyMaintenance 2743.8638877869
scalar OsgEarthNet.uav[47] utilizationEnergyCharge 5200
scalar OsgEarthNet.uav[47] utilizationEnergyOverdrawMission 0
scalar OsgEarthNet.uav[47] utilizationEnergyOverdrawMaintenance 198.71664428711
scalar OsgEarthNet.uav[47] utilizationCountMissions 1
scalar OsgEarthNet.uav[47] utilizationCountManeuversMission 25
scalar OsgEarthNet.uav[47] utilizationCountManeuversMaintenance 2
scalar OsgEarthNet.uav[47] utilizationCountChargeState 1
scalar OsgEarthNet.uav[47] utilizationCountOverdrawnAfterMission 1
scalar OsgEarthNet.uav[47] utilizationCountIdleState 2
scalar OsgEarthNet.uav[47] utilizationFail 0
scalar OsgEarthNet.uav[47] simulationTime 119728.62246044
scalar OsgEarthNet.uav[48] utilizationSecMission 3049.6110800536
scalar OsgEarthNet.uav[48] utilizationSecMaintenance 1290.0905550458
scalar OsgEarthNet.uav[48] utilizationSecCharge 15190
scalar OsgEarthNet.uav[48] utilizationSecIdle 100198.91982534
scalar OsgEarthNet.uav[48] utilizationEnergyMission 14437.538129622
scalar OsgEarthNet.uav[48] utilizationEnergyMaintenance 6094.8996429443
scalar OsgEarthNet.uav[48] utilizationEnergyCharge 20092.063964844
scalar OsgEarthNet.uav[48] utilizationEnergyOverdrawMission 0
scalar OsgEarthNet.uav[48] utilizationEnergyOverdrawMaintenance 0
scalar OsgEarthNet.uav[48] utilizationCountMissions 4
scalar OsgEarthNet.uav[48] utilizationCountManeuversMission 81
scalar OsgEarthNet.uav[48] utilizationCountManeuversMaintenance 7
scalar OsgEarthNet.uav[48] utilizationCountChargeState 4
scalar OsgEarthNet.uav[48] utilizationCountOverdrawnAfterMission 0
scalar OsgEarthNet.uav[48] utilizationCountIdleState 4
scalar OsgEarthNet.uav[48] utilizationFail 0
scalar OsgEarthNet.uav[48] simulationTime 119728.62246044
scalar OsgEarthNet.uav[49] utilizationSecMission 4464.206422178
scalar OsgEarthNet.uav[49] utilizationSecMaintenance 3044.8589125208
scalar OsgEarthNet.uav[49] utilizationSecCharge 23326.757409826
scalar OsgEarthNet.uav[49] utilizationSecIdle 88892.798715912
scalar OsgEarthNet.uav[49] utilizationEnergyMission 22789.310623169
scalar OsgEarthNet.uav[49] utilizationEnergyMaintenance 14191.391399384
scalar OsgEarthNet.uav[49] utilizationEnergyCharge 30998.750427246
scalar OsgEarthNet.uav[49] utilizationEnergyOverdrawMission 0
scalar OsgEarthNet.uav[49] utilizationEnergyOverdrawMaintenance 151.72663116455
scalar OsgEarthNet.uav[49] utilizationCountMissions 7
scalar OsgEarthNet.uav[49] utilizationCountManeuversMission 175
scalar OsgEarthNet.uav[49] utilizationCountManeuversMaintenance 14
scalar OsgEarthNet.uav[49] utilizationCountChargeState 7
scalar OsgEarthNet.uav[49] utilizationCountOverdrawnAfterMission 3
scalar OsgEarthNet.uav[49] utilizationCountIdleState 7
scalar OsgEarthNet.uav[49] utilizationFail 0
scalar OsgEarthNet.uav[49] simulationTime 119728.62246044
scalar OsgEarthNet.uav[50] utilizationSecMission 14218.694675983
scalar OsgEarthNet.uav[50] utilizationSecMaintenance 8348.3738204552
scalar OsgEarthNet.uav[50] utilizationSecCharge 80599.551963998
scalar OsgEarthNet.uav[50] utilizationSecIdle 16562.001
scalar OsgEarthNet.uav[50] utilizationEnergyMission 69837.003025055
scalar OsgEarthNet.uav[50] utilizationEnergyMaintenance 38967.164775848
scalar OsgEarthNet.uav[50] utilizationEnergyCharge 107137.72851562
scalar OsgEarthNet.uav[50] utilizationEnergyOverdrawMission 0
scalar OsgEarthNet.uav[50] utilizationEnergyOverdrawMaintenance 941.51918792725
scalar OsgEarthNet.uav[50] utilizationCountMissions 21
scalar OsgEarthNet.uav[50] utilizationCountManeuversMission 448
scalar OsgEarthNet.uav[50] utilizationCountManeuversMaintenance 42
scalar OsgEarthNet.uav[50] utilizationCountChargeState 21
scalar OsgEarthNet.uav[50] utilizationCountOverdrawnAfterMission 9
scalar OsgEarthNet.uav[50] utilizationCountIdleState 21
scalar OsgEarthNet.uav[50] utilizationFail 0
scalar OsgEarthNet.uav[50] simulationTime 119728.62246044
scalar OsgEarthNet.uav[51] utilizationSecMission 2628.9062226956
scalar OsgEarthNet.uav[51] utilizationSecMaintenance 2560.093400087
scalar OsgEarthNet.uav[51] utilizationSecCharge 19040
scalar OsgEarthNet.uav[51] utilizationSecIdle 95499.621837654
scalar OsgEarthNet.uav[51] utilizationEnergyMission 13398.759906769
scalar OsgEarthNet.uav[51] utilizationEnergyMaintenance 12004.051738739
scalar OsgEarthNet.uav[51] utilizationEnergyCharge 25175.032226562
scalar OsgEarthNet.uav[51] utilizationEnergyOverdrawMission 0
scalar OsgEarthNet.uav[51] utilizationEnergyOverdrawMaintenance 232.96307373047
scalar OsgEarthNet.uav[51] utilizationCountMissions 5
scalar OsgEarthNet.uav[51] utilizationCountManeuversMission 82
scalar OsgEarthNet.uav[51] utilizationCountManeuversMaintenance 10
scalar OsgEarthNet.uav[51] utilizationCountChargeState 5
scalar OsgEarthNet.uav[51] utilizationCountOverdrawnAfterMission 1
scalar OsgEarthNet.uav[51] utilizationCountIdleState 6
scalar OsgEarthNet.uav[51] utilizationFail 0
scalar OsgEarthNet.uav[51] simulationTime 119728.62246044
scalar OsgEarthNet.uav[52] utilizationSecMission 12505.87874697
scalar OsgEarthNet.uav[52] utilizationSecMaintenance 9070.0400456108
scalar OsgEarthNet.uav[52] utilizationSecCharge 76670
scalar OsgEarthNet.uav[52] utilizationSecIdle 21482.702667856
scalar OsgEarthNet.uav[52] utilizationEnergyMission 60251.989429474
scalar OsgEarthNet.uav[52] utilizationEnergyMaintenance 42884.679011654
scalar OsgEarthNet.uav[52] utilizationEnergyCharge 101442.33691406
scalar OsgEarthNet.uav[52] utilizationEnergyOverdrawMission 0
scalar OsgEarthNet.uav[52] utilizationEnergyOverdrawMaintenance 601.60224437714
scalar OsgEarthNet.uav[52] utilizationCountMissions 20
scalar OsgEarthNet.uav[52] utilizationCountManeuversMission 352
scalar OsgEarthNet.uav[52] utilizationCountManeuversMaintenance 41
scalar OsgEarthNet.uav[52] utilizationCountChargeState 20
scalar OsgEarthNet.uav[52] utilizationCountOverdrawnAfterMission 7
scalar OsgEarthNet.uav[52] utilizationCountIdleState 21
scalar OsgEarthNet.uav[52] utilizationFail 0
scalar OsgEarthNet.uav[52] simulationTime 119728.62246044
scalar OsgEarthNet.uav[53] utilizationSecMission 5855.1777364616
scalar OsgEarthNet.uav[53] utilizationSecMaintenance 4818.4215812042
scalar OsgEarthNet.uav[53] utilizationSecCharge 38710
scalar OsgEarthNet.uav[53] utilizationSecIdle 70345.022142771
scalar OsgEarthNet.uav[53] utilizationEnergyMission 28870.429458618
scalar OsgEarthNet.uav[53] utilizationEnergyMaintenance 22593.128376007
scalar OsgEarthNet.uav[53] utilizationEnergyCharge 51444.862304688
scalar OsgEarthNet.uav[53] utilizationEnergyOverdrawMission 0
scalar OsgEarthNet.uav[53] utilizationEnergyOverdrawMaintenance 565.25923156738
scalar OsgEarthNet.uav[53] utilizationCountMissions 10
scalar OsgEarthNet.uav[53] utilizationCountManeuversMission 252
scalar OsgEarthNet.uav[53] utilizationCountManeuversMaintenance 20
scalar OsgEarthNet.uav[53] utilizationCountChargeState 10
scalar OsgEarthNet.uav[53] utilizationCountOverdrawnAfterMission 6
scalar OsgEarthNet.uav[53] utilizationCountIdleState 10
scalar OsgEarthNet.uav[53] utilizationFail 0
scalar OsgEarthNet.uav[53] simulationTime 119728.62246044
scalar OsgEarthNet.uav[54] utilizationSecMission 13129.199944258
scalar OsgEarthNet.uav[54] utilizationSecMaintenance 10239.773337843
scalar OsgEarthNet.uav[54] utilizationSecCharge 83127.648178336
scalar OsgEarthNet.uav[54] utilizationSecIdle 13232
scalar OsgEarthNet.uav[54] utilizationEnergyMission 63874.461057081
scalar OsgEarthNet.uav[54] utilizationEnergyMaintenance 48436.569805145
scalar OsgEarthNet.uav[54] utilizationEnergyCharge 110854.36474609
scalar OsgEarthNet.uav[54] utilizationEnergyOverdrawMission 0
scalar OsgEarthNet.uav[54] utilizationEnergyOverdrawMaintenance 804.72964096069
scalar OsgEarthNet.uav[54] utilizationCountMissions 22
scalar OsgEarthNet.uav[54] utilizationCountManeuversMission 384
scalar OsgEarthNet.uav[54] utilizationCountManeuversMaintenance 43
scalar OsgEarthNet.uav[54] utilizationCountChargeState 22
scalar OsgEarthNet.uav[54] utilizationCountOverdrawnAfterMission 6
scalar OsgEarthNet.uav[54] utilizationCountIdleState 22
scalar OsgEarthNet.uav[54] utilizationFail 0
scalar OsgEarthNet.uav[54] simulationTime 119728.62246044
scalar OsgEarthNet.uav[55] utilizationSecMission 9685.7089730869
scalar OsgEarthNet.uav[55] utilizationSecMaintenance 5379.8647247928
scalar OsgEarthNet.uav[55] utilizationSecCharge 53358.715818485
scalar OsgEarthNet.uav[55] utilizationSecIdle 51304.331944072
scalar OsgEarthNet.uav[55] utilizationEnergyMission 46635.331935883
scalar OsgEarthNet.uav[55] utilizationEnergyMaintenance 25072.839435577
scalar OsgEarthNet.uav[55] utilizationEnergyCharge 70846.058105469
scalar OsgEarthNet.uav[55] utilizationEnergyOverdrawMission 0
scalar OsgEarthNet.uav[55] utilizationEnergyOverdrawMaintenance 558.34975862503
scalar OsgEarthNet.uav[55] utilizationCountMissions 14
scalar OsgEarthNet.uav[55] utilizationCountManeuversMission 261
scalar OsgEarthNet.uav[55] utilizationCountManeuversMaintenance 28
scalar OsgEarthNet.uav[55] utilizationCountChargeState 14
scalar OsgEarthNet.uav[55] utilizationCountOverdrawnAfterMission 4
scalar OsgEarthNet.uav[55] utilizationCountIdleState 14
scalar OsgEarthNet.uav[55] utilizationFail 0
scalar OsgEarthNet.uav[55] simulationTime 119728.62246044
scalar OsgEarthNet.uav[56] utilizationSecMission 9704.6493555151
scalar OsgEarthNet.uav[56] utilizationSecMaintenance 7299.591996536
scalar OsgEarthNet.uav[56] utilizationSecCharge 61290.642703724
scalar OsgEarthNet.uav[56] utilizationSecIdle 41433.737404662
scalar OsgEarthNet.uav[56] utilizationEnergyMission 49018.819379255
scalar OsgEarthNet.uav[56] utilizationEnergyMaintenance 33873.559303284
scalar OsgEarthNet.uav[56] utilizationEnergyCharge 81553.96875
scalar OsgEarthNet.uav[56] utilizationEnergyOverdrawMission 0
scalar OsgEarthNet.uav[56] utilizationEnergyOverdrawMaintenance 1155.3886756897
scalar OsgEarthNet.uav[56] utilizationCountMissions 16
scalar OsgEarthNet.uav[56] utilizationCountManeuversMission 363
scalar OsgEarthNet.uav[56] utilizationCountManeuversMaintenance 32
scalar OsgEarthNet.uav[56] utilizationCountChargeState 16
scalar OsgEarthNet.uav[56] utilizationCountOverdrawnAfterMission 8
scalar OsgEarthNet.uav[56] utilizationCountIdleState 16
scalar OsgEarthNet.uav[56] utilizationFail 0
scalar OsgEarthNet.uav[56] simulationTime 119728.62246044
scalar OsgEarthNet.uav[57] utilizationSecMission 10618.566205611
scalar OsgEarthNet.uav[57] utilizationSecMaintenance 7513.9813753065
scalar OsgEarthNet.uav[57] utilizationSecCharge 62044.062879519
scalar OsgEarthNet.uav[57] utilizationSecIdle 39552.011
scalar OsgEarthNet.uav[57] utilizationEnergyMission 50265.124546051
scalar OsgEarthNet.uav[57] utilizationEnergyMaintenance 35065.361953735
scalar OsgEarthNet.uav[57] utilizationEnergyCharge 82671.284423828
scalar OsgEarthNet.uav[57] utilizationEnergyOverdrawMission 0
scalar OsgEarthNet.uav[57] utilizationEnergyOverdrawMaintenance 520.34008789062
scalar OsgEarthNet.uav[57] utilizationCountMissions 17
scalar OsgEarthNet.uav[57] utilizationCountManeuversMission 321
scalar OsgEarthNet.uav[57] utilizationCountManeuversMaintenance 34
scalar OsgEarthNet.uav[57] utilizationCountChargeState 17
scalar OsgEarthNet.uav[57] utilizationCountOverdrawnAfterMission 7
scalar OsgEarthNet.uav[57] utilizationCountIdleState 17
scalar OsgEarthNet.uav[57] utilizationFail 0
scalar OsgEarthNet.uav[57] simulationTime 119728.62246044
scalar OsgEarthNet.uav[58] utilizationSecMission 12628.715226157
scalar OsgEarthNet.uav[58] utilizationSecMaintenance 9203.5808548466
scalar OsgEarthNet.uav[58] utilizationSecCharge 77140
scalar OsgEarthNet.uav[58] utilizationSecIdle 20756.325379433
scalar OsgEarthNet.uav[58] utilizationEnergyMission 61298.788754011
scalar OsgEarthNet.uav[58] utilizationEnergyMaintenance 43311.065486908
scalar OsgEarthNet.uav[58] utilizationEnergyCharge 102500.95458984
scalar OsgEarthNet.uav[58] utilizationEnergyOverdrawMission 0
scalar OsgEarthNet.uav[58] utilizationEnergyOverdrawMaintenance 1249.5272741318
scalar OsgEarthNet.uav[58] utilizationCountMissions 20
scalar OsgEarthNet.uav[58] utilizationCountManeuversMission 442
scalar OsgEarthNet.uav[58] utilizationCountManeuversMaintenance 41
scalar OsgEarthNet.uav[58] utilizationCountChargeState 20
scalar OsgEarthNet.uav[58] utilizationCountOverdrawnAfterMission 7
scalar OsgEarthNet.uav[58] utilizationCountIdleState 20
scalar OsgEarthNet.uav[58] utilizationFail 0
scalar OsgEarthNet.uav[58] simulationTime 119728.62246044
scalar OsgEarthNet.uav[59] utilizationSecMission 12141.978133895
scalar OsgEarthNet.uav[59] utilizationSecMaintenance 9682.2389642971
scalar OsgEarthNet.uav[59] utilizationSecCharge 76650
scalar OsgEarthNet.uav[59] utilizationSecIdle 21254.404362245
scalar OsgEarthNet.uav[59] utilizationEnergyMission 58389.494045258
scalar OsgEarthNet.uav[59] utilizationEnergyMaintenance 45214.552612305
scalar OsgEarthNet.uav[59] utilizationEnergyCharge 101958.5859375
scalar OsgEarthNet.uav[59] utilizationEnergyOverdrawMission 0
scalar OsgEarthNet.uav[59] utilizationEnergyOverdrawMaintenance 1309.8196792603
scalar OsgEarthNet.uav[59] utilizationCountMissions 20
scalar OsgEarthNet.uav[59] utilizationCountManeuversMission 371
scalar OsgEarthNet.uav[59] utilizationCountManeuversMaintenance 40
scalar OsgEarthNet.uav[59] utilizationCountChargeState 20
scalar OsgEarthNet.uav[59] utilizationCountOverdrawnAfterMission 7
scalar OsgEarthNet.uav[59] utilizationCountIdleState 18
scalar OsgEarthNet.uav[59] utilizationFail 0
scalar OsgEarthNet.uav[59] simulationTime 119728.62246044
scalar OsgEarthNet.uav[60] utilizationSecMission 12587.138482958
scalar OsgEarthNet.uav[60] utilizationSecMaintenance 9091.4255617987
scalar OsgEarthNet.uav[60] utilizationSecCharge 77660
scalar OsgEarthNet.uav[60] utilizationSecIdle 20390.05741568
scalar OsgEarthNet.uav[60] utilizationEnergyMission 63196.97964859
scalar OsgEarthNet.uav[60] utilizationEnergyMaintenance 42725.53963089
scalar OsgEarthNet.uav[60] utilizationEnergyCharge 103447.81298828
scalar OsgEarthNet.uav[60] utilizationEnergyOverdrawMission 0
scalar OsgEarthNet.uav[60] utilizationEnergyOverdrawMaintenance 1492.826020956
scalar OsgEarthNet.uav[60] utilizationCountMissions 20
scalar OsgEarthNet.uav[60] utilizationCountManeuversMission 416
scalar OsgEarthNet.uav[60] utilizationCountManeuversMaintenance 40
scalar OsgEarthNet.uav[60] utilizationCountChargeState 20
scalar OsgEarthNet.uav[60] utilizationCountOverdrawnAfterMission 14
scalar OsgEarthNet.uav[60] utilizationCountIdleState 21
scalar OsgEarthNet.uav[60] utilizationFail 0
scalar OsgEarthNet.uav[60] simulationTime 119728.62246044
scalar OsgEarthNet.uav[61] utilizationSecMission 14631.225731489
scalar OsgEarthNet.uav[61] utilizationSecMaintenance 7948.6907344583
scalar OsgEarthNet.uav[61] utilizationSecCharge 78000.353390289
scalar OsgEarthNet.uav[61] utilizationSecIdle 19148.351604201
scalar OsgEarthNet.uav[61] utilizationEnergyMission 71582.419025421
scalar OsgEarthNet.uav[61] utilizationEnergyMaintenance 37040.928226471
scalar OsgEarthNet.uav[61] utilizationEnergyCharge 104073.19189453
scalar OsgEarthNet.uav[61] utilizationEnergyOverdrawMission 0
scalar OsgEarthNet.uav[61] utilizationEnergyOverdrawMaintenance 1421.5777626038
scalar OsgEarthNet.uav[61] utilizationCountMissions 21
scalar OsgEarthNet.uav[61] utilizationCountManeuversMission 491
scalar OsgEarthNet.uav[61] utilizationCountManeuversMaintenance 42
scalar OsgEarthNet.uav[61] utilizationCountChargeState 21
scalar OsgEarthNet.uav[61] utilizationCountOverdrawnAfterMission 9
scalar OsgEarthNet.uav[61] utilizationCountIdleState 21
scalar OsgEarthNet.uav[61] utilizationFail 0
scalar OsgEarthNet.uav[61] simulationTime 119728.62246044
scalar OsgEarthNet.uav[62] utilizationSecMission 14275.776860301
scalar OsgEarthNet.uav[62] utilizationSecMaintenance 8395.5869794556
scalar OsgEarthNet.uav[62] utilizationSecCharge 77725.252620681
scalar OsgEarthNet.uav[62] utilizationSecIdle 19332.005
scalar OsgEarthNet.uav[62] utilizationEnergyMission 68901.923851013
scalar OsgEarthNet.uav[62] utilizationEnergyMaintenance 38912.832176208
scalar OsgEarthNet.uav[62] utilizationEnergyCharge 104091.76367188
scalar OsgEarthNet.uav[62] utilizationEnergyOverdrawMission 0
scalar OsgEarthNet.uav[62] utilizationEnergyOverdrawMaintenance 923.49982452393
scalar OsgEarthNet.uav[62] utilizationCountMissions 21
scalar OsgEarthNet.uav[62] utilizationCountManeuversMission 387
scalar OsgEarthNet.uav[62] utilizationCountManeuversMaintenance 42
scalar OsgEarthNet.uav[62] utilizationCountChargeState 21
scalar OsgEarthNet.uav[62] utilizationCountOverdrawnAfterMission 6
scalar OsgEarthNet.uav[62] utilizationCountIdleState 19
scalar OsgEarthNet.uav[62] utilizationFail 0
scalar OsgEarthNet.uav[62] simulationTime 119728.62246044
scalar OsgEarthNet.uav[63] utilizationSecMission 13933.528931519
scalar OsgEarthNet.uav[63] utilizationSecMaintenance 10065.349542995
scalar OsgEarthNet.uav[63] utilizationSecCharge 83750
scalar OsgEarthNet.uav[63] utilizationSecIdle 11979.742985923
scalar OsgEarthNet.uav[63] utilizationEnergyMission 65798.675314252
scalar OsgEarthNet.uav[63] utilizationEnergyMaintenance 46091.847480774
scalar OsgEarthNet.uav[63] utilizationEnergyCharge 110846.65234375
scalar OsgEarthNet.uav[63] utilizationEnergyOverdrawMission 0
scalar OsgEarthNet.uav[63] utilizationEnergyOverdrawMaintenance 357.93894958496
scalar OsgEarthNet.uav[63] utilizationCountMissions 22
scalar OsgEarthNet.uav[63] utilizationCountManeuversMission 332
scalar OsgEarthNet.uav[63] utilizationCountManeuversMaintenance 43
scalar OsgEarthNet.uav[63] utilizationCountChargeState 22
scalar OsgEarthNet.uav[63] utilizationCountOverdrawnAfterMission 4
scalar OsgEarthNet.uav[63] utilizationCountIdleState 23
scalar OsgEarthNet.uav[63] utilizationFail 0
scalar OsgEarthNet.uav[63] simulationTime 119728.62246044
scalar OsgEarthNet.uav[64] utilizationSecMission 12894.972512945
scalar OsgEarthNet.uav[64] utilizationSecMaintenance 9540.149357863
scalar OsgEarthNet.uav[64] utilizationSecCharge 77080.143358391
scalar OsgEarthNet.uav[64] utilizationSecIdle 20213.356231238
scalar OsgEarthNet.uav[64] utilizationEnergyMission 61317.281547546
scalar OsgEarthNet.uav[64] utilizationEnergyMaintenance 44020.11151886
scalar OsgEarthNet.uav[64] utilizationEnergyCharge 102743.99658203
scalar OsgEarthNet.uav[64] utilizationEnergyOverdrawMission 0
scalar OsgEarthNet.uav[64] utilizationEnergyOverdrawMaintenance 469.83278083801
scalar OsgEarthNet.uav[64] utilizationCountMissions 21
scalar OsgEarthNet.uav[64] utilizationCountManeuversMission 329
[...]
scalar OsgEarthNet.uav[81] simulationTime 119728.62246044
scalar OsgEarthNet.uav[82] utilizationSecMission 15112.353817294
scalar OsgEarthNet.uav[82] utilizationSecMaintenance 9286.0718741291
scalar OsgEarthNet.uav[82] utilizationSecCharge 86138.194769014
scalar OsgEarthNet.uav[82] utilizationSecIdle 9192.001
scalar OsgEarthNet.uav[82] utilizationEnergyMission 72863.34305191
scalar OsgEarthNet.uav[82] utilizationEnergyMaintenance 44163.454021454
scalar OsgEarthNet.uav[82] utilizationEnergyCharge 115078.64208984
scalar OsgEarthNet.uav[82] utilizationEnergyOverdrawMission 0
scalar OsgEarthNet.uav[82] utilizationEnergyOverdrawMaintenance 953.00186538696
scalar OsgEarthNet.uav[82] utilizationCountMissions 23
scalar OsgEarthNet.uav[82] utilizationCountManeuversMission 466
scalar OsgEarthNet.uav[82] utilizationCountManeuversMaintenance 46
scalar OsgEarthNet.uav[82] utilizationCountChargeState 23
scalar OsgEarthNet.uav[82] utilizationCountOverdrawnAfterMission 7
scalar OsgEarthNet.uav[82] utilizationCountIdleState 20
scalar OsgEarthNet.uav[82] utilizationFail 0
scalar OsgEarthNet.uav[82] simulationTime 119728.62246044
scalar OsgEarthNet.uav[83] utilizationSecMission 14820.064463594
scalar OsgEarthNet.uav[83] utilizationSecMaintenance 9466.3179392223
scalar OsgEarthNet.uav[83] utilizationSecCharge 84389.791168074
scalar OsgEarthNet.uav[83] utilizationSecIdle 11052.447889546
scalar OsgEarthNet.uav[83] utilizationEnergyMission 70984.468990326
scalar OsgEarthNet.uav[83] utilizationEnergyMaintenance 44479.617393494
scalar OsgEarthNet.uav[83] utilizationEnergyCharge 112979.09057617
scalar OsgEarthNet.uav[83] utilizationEnergyOverdrawMission 0
scalar OsgEarthNet.uav[83] utilizationEnergyOverdrawMaintenance 596.6089553833
scalar OsgEarthNet.uav[83] utilizationCountMissions 23
scalar OsgEarthNet.uav[83] utilizationCountManeuversMission 402
scalar OsgEarthNet.uav[83] utilizationCountManeuversMaintenance 46
scalar OsgEarthNet.uav[83] utilizationCountChargeState 23
scalar OsgEarthNet.uav[83] utilizationCountOverdrawnAfterMission 6
scalar OsgEarthNet.uav[83] utilizationCountIdleState 18
scalar OsgEarthNet.uav[83] utilizationFail 0
scalar OsgEarthNet.uav[83] simulationTime 119728.62246044
scalar OsgEarthNet.uav[84] utilizationSecMission 13790.344817932
scalar OsgEarthNet.uav[84] utilizationSecMaintenance 10967.847606969
scalar OsgEarthNet.uav[84] utilizationSecCharge 84938.420035536
scalar OsgEarthNet.uav[84] utilizationSecIdle 10032.009
scalar OsgEarthNet.uav[84] utilizationEnergyMission 67174.367240906
scalar OsgEarthNet.uav[84] utilizationEnergyMaintenance 49925.874538422
scalar OsgEarthNet.uav[84] utilizationEnergyCharge 113340.58374023
scalar OsgEarthNet.uav[84] utilizationEnergyOverdrawMission 0
scalar OsgEarthNet.uav[84] utilizationEnergyOverdrawMaintenance 1021.1190662384
scalar OsgEarthNet.uav[84] utilizationCountMissions 23
scalar OsgEarthNet.uav[84] utilizationCountManeuversMission 452
scalar OsgEarthNet.uav[84] utilizationCountManeuversMaintenance 46
scalar OsgEarthNet.uav[84] utilizationCountChargeState 23
scalar OsgEarthNet.uav[84] utilizationCountOverdrawnAfterMission 8
scalar OsgEarthNet.uav[84] utilizationCountIdleState 20
scalar OsgEarthNet.uav[84] utilizationFail 0
scalar OsgEarthNet.uav[84] simulationTime 119728.62246044
scalar OsgEarthNet.uav[85] utilizationSecMission 14295.320787274
scalar OsgEarthNet.uav[85] utilizationSecMaintenance 10572.887052264
scalar OsgEarthNet.uav[85] utilizationSecCharge 86826.211675278
scalar OsgEarthNet.uav[85] utilizationSecIdle 8034.2019456214
scalar OsgEarthNet.uav[85] utilizationEnergyMission 69747.273544312
scalar OsgEarthNet.uav[85] utilizationEnergyMaintenance 49023.100654602
scalar OsgEarthNet.uav[85] utilizationEnergyCharge 117423.41650391
scalar OsgEarthNet.uav[85] utilizationEnergyOverdrawMission 0
scalar OsgEarthNet.uav[85] utilizationEnergyOverdrawMaintenance 616.14521598816
scalar OsgEarthNet.uav[85] utilizationCountMissions 23
scalar OsgEarthNet.uav[85] utilizationCountManeuversMission 487
scalar OsgEarthNet.uav[85] utilizationCountManeuversMaintenance 46
scalar OsgEarthNet.uav[85] utilizationCountChargeState 23
scalar OsgEarthNet.uav[85] utilizationCountOverdrawnAfterMission 9
scalar OsgEarthNet.uav[85] utilizationCountIdleState 18
scalar OsgEarthNet.uav[85] utilizationFail 0
scalar OsgEarthNet.uav[85] simulationTime 119728.62246044
scalar OsgEarthNet.uav[86] utilizationSecMission 15404.030912722
scalar OsgEarthNet.uav[86] utilizationSecMaintenance 9693.9798935827
scalar OsgEarthNet.uav[86] utilizationSecCharge 85825.335019035
scalar OsgEarthNet.uav[86] utilizationSecIdle 8805.2756350975
scalar OsgEarthNet.uav[86] utilizationEnergyMission 75121.047996521
scalar OsgEarthNet.uav[86] utilizationEnergyMaintenance 44665.921134949
scalar OsgEarthNet.uav[86] utilizationEnergyCharge 115335.26513672
scalar OsgEarthNet.uav[86] utilizationEnergyOverdrawMission 0
scalar OsgEarthNet.uav[86] utilizationEnergyOverdrawMaintenance 1067.0755500793
scalar OsgEarthNet.uav[86] utilizationCountMissions 23
scalar OsgEarthNet.uav[86] utilizationCountManeuversMission 486
scalar OsgEarthNet.uav[86] utilizationCountManeuversMaintenance 46
scalar OsgEarthNet.uav[86] utilizationCountChargeState 23
scalar OsgEarthNet.uav[86] utilizationCountOverdrawnAfterMission 8
scalar OsgEarthNet.uav[86] utilizationCountIdleState 16
scalar OsgEarthNet.uav[86] utilizationFail 0
scalar OsgEarthNet.uav[86] simulationTime 119728.62246044
scalar OsgEarthNet.uav[87] utilizationSecMission 14020.648664292
scalar OsgEarthNet.uav[87] utilizationSecMaintenance 11345.968796145
scalar OsgEarthNet.uav[87] utilizationSecCharge 87890
scalar OsgEarthNet.uav[87] utilizationSecIdle 6472.004
scalar OsgEarthNet.uav[87] utilizationEnergyMission 68753.868681549
scalar OsgEarthNet.uav[87] utilizationEnergyMaintenance 53274.321289062
scalar OsgEarthNet.uav[87] utilizationEnergyCharge 117949.75
scalar OsgEarthNet.uav[87] utilizationEnergyOverdrawMission 0
scalar OsgEarthNet.uav[87] utilizationEnergyOverdrawMaintenance 1243.0070400238
scalar OsgEarthNet.uav[87] utilizationCountMissions 23
scalar OsgEarthNet.uav[87] utilizationCountManeuversMission 463
scalar OsgEarthNet.uav[87] utilizationCountManeuversMaintenance 47
scalar OsgEarthNet.uav[87] utilizationCountChargeState 23
scalar OsgEarthNet.uav[87] utilizationCountOverdrawnAfterMission 10
scalar OsgEarthNet.uav[87] utilizationCountIdleState 17
scalar OsgEarthNet.uav[87] utilizationFail 0
scalar OsgEarthNet.uav[87] simulationTime 119728.62246044
scalar OsgEarthNet.uav[88] utilizationSecMission 13318.417346964
scalar OsgEarthNet.uav[88] utilizationSecMaintenance 11284.897240382
scalar OsgEarthNet.uav[88] utilizationSecCharge 86818.979493659
scalar OsgEarthNet.uav[88] utilizationSecIdle 8306.3273794327
scalar OsgEarthNet.uav[88] utilizationEnergyMission 64236.416641235
scalar OsgEarthNet.uav[88] utilizationEnergyMaintenance 53013.280925751
scalar OsgEarthNet.uav[88] utilizationEnergyCharge 115791.96386719
scalar OsgEarthNet.uav[88] utilizationEnergyOverdrawMission 0
scalar OsgEarthNet.uav[88] utilizationEnergyOverdrawMaintenance 1356.8040237427
scalar OsgEarthNet.uav[88] utilizationCountMissions 23
scalar OsgEarthNet.uav[88] utilizationCountManeuversMission 462
scalar OsgEarthNet.uav[88] utilizationCountManeuversMaintenance 46
scalar OsgEarthNet.uav[88] utilizationCountChargeState 23
scalar OsgEarthNet.uav[88] utilizationCountOverdrawnAfterMission 9
scalar OsgEarthNet.uav[88] utilizationCountIdleState 18
scalar OsgEarthNet.uav[88] utilizationFail 0
scalar OsgEarthNet.uav[88] simulationTime 119728.62246044
scalar OsgEarthNet.uav[89] utilizationSecMission 13979.676618623
scalar OsgEarthNet.uav[89] utilizationSecMaintenance 9483.0955371599
scalar OsgEarthNet.uav[89] utilizationSecCharge 83471.522949473
scalar OsgEarthNet.uav[89] utilizationSecIdle 12794.326355181
scalar OsgEarthNet.uav[89] utilizationEnergyMission 67600.789104462
scalar OsgEarthNet.uav[89] utilizationEnergyMaintenance 44790.170871735
scalar OsgEarthNet.uav[89] utilizationEnergyCharge 111976.4296875
scalar OsgEarthNet.uav[89] utilizationEnergyOverdrawMission 0
scalar OsgEarthNet.uav[89] utilizationEnergyOverdrawMaintenance 1061.5468082428
scalar OsgEarthNet.uav[89] utilizationCountMissions 22
scalar OsgEarthNet.uav[89] utilizationCountManeuversMission 509
scalar OsgEarthNet.uav[89] utilizationCountManeuversMaintenance 44
scalar OsgEarthNet.uav[89] utilizationCountChargeState 22
scalar OsgEarthNet.uav[89] utilizationCountOverdrawnAfterMission 11
scalar OsgEarthNet.uav[89] utilizationCountIdleState 18
scalar OsgEarthNet.uav[89] utilizationFail 0
scalar OsgEarthNet.uav[89] simulationTime 119728.62246044
scalar OsgEarthNet.uav[90] utilizationSecMission 13367.895024204
scalar OsgEarthNet.uav[90] utilizationSecMaintenance 11186.791869639
scalar OsgEarthNet.uav[90] utilizationSecCharge 86280.402897707
scalar OsgEarthNet.uav[90] utilizationSecIdle 8893.531668886
scalar OsgEarthNet.uav[90] utilizationEnergyMission 64512.429695129
scalar OsgEarthNet.uav[90] utilizationEnergyMaintenance 52609.630752563
scalar OsgEarthNet.uav[90] utilizationEnergyCharge 116314.10107422
scalar OsgEarthNet.uav[90] utilizationEnergyOverdrawMission 0
scalar OsgEarthNet.uav[90] utilizationEnergyOverdrawMaintenance 984.23213863373
scalar OsgEarthNet.uav[90] utilizationCountMissions 23
scalar OsgEarthNet.uav[90] utilizationCountManeuversMission 423
scalar OsgEarthNet.uav[90] utilizationCountManeuversMaintenance 46
scalar OsgEarthNet.uav[90] utilizationCountChargeState 23
scalar OsgEarthNet.uav[90] utilizationCountOverdrawnAfterMission 9
scalar OsgEarthNet.uav[90] utilizationCountIdleState 14
scalar OsgEarthNet.uav[90] utilizationFail 0
scalar OsgEarthNet.uav[90] simulationTime 119728.62246044
scalar OsgEarthNet.uav[91] utilizationSecMission 14218.903410139
scalar OsgEarthNet.uav[91] utilizationSecMaintenance 10665.345054795
scalar OsgEarthNet.uav[91] utilizationSecCharge 87242.366995503
scalar OsgEarthNet.uav[91] utilizationSecIdle 7602.006
scalar OsgEarthNet.uav[91] utilizationEnergyMission 69050.450687408
scalar OsgEarthNet.uav[91] utilizationEnergyMaintenance 49986.915092468
scalar OsgEarthNet.uav[91] utilizationEnergyCharge 116897.58544922
scalar OsgEarthNet.uav[91] utilizationEnergyOverdrawMission 0
scalar OsgEarthNet.uav[91] utilizationEnergyOverdrawMaintenance 1446.1961202621
scalar OsgEarthNet.uav[91] utilizationCountMissions 23
scalar OsgEarthNet.uav[91] utilizationCountManeuversMission 379
scalar OsgEarthNet.uav[91] utilizationCountManeuversMaintenance 46
scalar OsgEarthNet.uav[91] utilizationCountChargeState 23
scalar OsgEarthNet.uav[91] utilizationCountOverdrawnAfterMission 8
scalar OsgEarthNet.uav[91] utilizationCountIdleState 18
scalar OsgEarthNet.uav[91] utilizationFail 0
scalar OsgEarthNet.uav[91] simulationTime 119728.62246044
scalar OsgEarthNet.uav[92] utilizationSecMission 14200.363801148
scalar OsgEarthNet.uav[92] utilizationSecMaintenance 11423.193124011
scalar OsgEarthNet.uav[92] utilizationSecCharge 87218.498505958
scalar OsgEarthNet.uav[92] utilizationSecIdle 6886.5660293189
scalar OsgEarthNet.uav[92] utilizationEnergyMission 67705.292617798
scalar OsgEarthNet.uav[92] utilizationEnergyMaintenance 53318.394828796
scalar OsgEarthNet.uav[92] utilizationEnergyCharge 116663.68586731
scalar OsgEarthNet.uav[92] utilizationEnergyOverdrawMission 0
scalar OsgEarthNet.uav[92] utilizationEnergyOverdrawMaintenance 1002.6802215576
scalar OsgEarthNet.uav[92] utilizationCountMissions 24
scalar OsgEarthNet.uav[92] utilizationCountManeuversMission 430
scalar OsgEarthNet.uav[92] utilizationCountManeuversMaintenance 48
scalar OsgEarthNet.uav[92] utilizationCountChargeState 24
scalar OsgEarthNet.uav[92] utilizationCountOverdrawnAfterMission 10
scalar OsgEarthNet.uav[92] utilizationCountIdleState 16
scalar OsgEarthNet.uav[92] utilizationFail 0
scalar OsgEarthNet.uav[92] simulationTime 119728.62246044
scalar OsgEarthNet.uav[93] utilizationSecMission 14930.789224321
scalar OsgEarthNet.uav[93] utilizationSecMaintenance 11030.630557138
scalar OsgEarthNet.uav[93] utilizationSecCharge 87520
scalar OsgEarthNet.uav[93] utilizationSecIdle 6247.2016789781
scalar OsgEarthNet.uav[93] utilizationEnergyMission 70899.213581085
scalar OsgEarthNet.uav[93] utilizationEnergyMaintenance 51277.500685198
scalar OsgEarthNet.uav[93] utilizationEnergyCharge 116854.72460938
scalar OsgEarthNet.uav[93] utilizationEnergyOverdrawMission 0
scalar OsgEarthNet.uav[93] utilizationEnergyOverdrawMaintenance 1163.2616691589
scalar OsgEarthNet.uav[93] utilizationCountMissions 24
scalar OsgEarthNet.uav[93] utilizationCountManeuversMission 479
scalar OsgEarthNet.uav[93] utilizationCountManeuversMaintenance 48
scalar OsgEarthNet.uav[93] utilizationCountChargeState 23
scalar OsgEarthNet.uav[93] utilizationCountOverdrawnAfterMission 6
scalar OsgEarthNet.uav[93] utilizationCountIdleState 17
scalar OsgEarthNet.uav[93] utilizationFail 0
scalar OsgEarthNet.uav[93] simulationTime 119728.62246044
scalar OsgEarthNet.uav[94] utilizationSecMission 14046.0528244
scalar OsgEarthNet.uav[94] utilizationSecMaintenance 11274.448063678
scalar OsgEarthNet.uav[94] utilizationSecCharge 86260.288287266
scalar OsgEarthNet.uav[94] utilizationSecIdle 8147.8322850932
scalar OsgEarthNet.uav[94] utilizationEnergyMission 66374.0495224
scalar OsgEarthNet.uav[94] utilizationEnergyMaintenance 52889.090778351
scalar OsgEarthNet.uav[94] utilizationEnergyCharge 116548.05712891
scalar OsgEarthNet.uav[94] utilizationEnergyOverdrawMission 0
scalar OsgEarthNet.uav[94] utilizationEnergyOverdrawMaintenance 1743.2396392822
scalar OsgEarthNet.uav[94] utilizationCountMissions 23
scalar OsgEarthNet.uav[94] utilizationCountManeuversMission 373
scalar OsgEarthNet.uav[94] utilizationCountManeuversMaintenance 46
scalar OsgEarthNet.uav[94] utilizationCountChargeState 23
scalar OsgEarthNet.uav[94] utilizationCountOverdrawnAfterMission 9
scalar OsgEarthNet.uav[94] utilizationCountIdleState 11
scalar OsgEarthNet.uav[94] utilizationFail 0
scalar OsgEarthNet.uav[94] simulationTime 119728.62246044
scalar OsgEarthNet.uav[95] utilizationSecMission 16907.720336821
scalar OsgEarthNet.uav[95] utilizationSecMaintenance 7936.1786590131
scalar OsgEarthNet.uav[95] utilizationSecCharge 84578.39308517
scalar OsgEarthNet.uav[95] utilizationSecIdle 10306.329379433
scalar OsgEarthNet.uav[95] utilizationEnergyMission 81821.282951355
scalar OsgEarthNet.uav[95] utilizationEnergyMaintenance 36369.085647583
scalar OsgEarthNet.uav[95] utilizationEnergyCharge 112360.05322266
scalar OsgEarthNet.uav[95] utilizationEnergyOverdrawMission 0
scalar OsgEarthNet.uav[95] utilizationEnergyOverdrawMaintenance 703.78823471069
scalar OsgEarthNet.uav[95] utilizationCountMissions 23
scalar OsgEarthNet.uav[95] utilizationCountManeuversMission 511
scalar OsgEarthNet.uav[95] utilizationCountManeuversMaintenance 46
scalar OsgEarthNet.uav[95] utilizationCountChargeState 23
scalar OsgEarthNet.uav[95] utilizationCountOverdrawnAfterMission 6
scalar OsgEarthNet.uav[95] utilizationCountIdleState 21
scalar OsgEarthNet.uav[95] utilizationFail 0
scalar OsgEarthNet.uav[95] simulationTime 119728.62246044
scalar OsgEarthNet.uav[96] utilizationSecMission 13601.827450191
scalar OsgEarthNet.uav[96] utilizationSecMaintenance 11191.744710327
scalar OsgEarthNet.uav[96] utilizationSecCharge 85551.349099949
scalar OsgEarthNet.uav[96] utilizationSecIdle 9383.7001999696
scalar OsgEarthNet.uav[96] utilizationEnergyMission 66228.406482697
scalar OsgEarthNet.uav[96] utilizationEnergyMaintenance 52143.484069824
scalar OsgEarthNet.uav[96] utilizationEnergyCharge 115603.03613281
scalar OsgEarthNet.uav[96] utilizationEnergyOverdrawMission 0
scalar OsgEarthNet.uav[96] utilizationEnergyOverdrawMaintenance 552.83463478088
scalar OsgEarthNet.uav[96] utilizationCountMissions 23
scalar OsgEarthNet.uav[96] utilizationCountManeuversMission 462
scalar OsgEarthNet.uav[96] utilizationCountManeuversMaintenance 46
scalar OsgEarthNet.uav[96] utilizationCountChargeState 23
scalar OsgEarthNet.uav[96] utilizationCountOverdrawnAfterMission 7
scalar OsgEarthNet.uav[96] utilizationCountIdleState 12
scalar OsgEarthNet.uav[96] utilizationFail 0
scalar OsgEarthNet.uav[96] simulationTime 119728.62246044
scalar OsgEarthNet.uav[97] utilizationSecMission 12740.173049736
scalar OsgEarthNet.uav[97] utilizationSecMaintenance 12416.441410701
scalar OsgEarthNet.uav[97] utilizationSecCharge 87470
scalar OsgEarthNet.uav[97] utilizationSecIdle 7102.007
scalar OsgEarthNet.uav[97] utilizationEnergyMission 62626.438972473
scalar OsgEarthNet.uav[97] utilizationEnergyMaintenance 57483.375313324
scalar OsgEarthNet.uav[97] utilizationEnergyCharge 117311.71289062
scalar OsgEarthNet.uav[97] utilizationEnergyOverdrawMission 0
scalar OsgEarthNet.uav[97] utilizationEnergyOverdrawMaintenance 1502.741859436
scalar OsgEarthNet.uav[97] utilizationCountMissions 23
scalar OsgEarthNet.uav[97] utilizationCountManeuversMission 482
scalar OsgEarthNet.uav[97] utilizationCountManeuversMaintenance 47
scalar OsgEarthNet.uav[97] utilizationCountChargeState 23
scalar OsgEarthNet.uav[97] utilizationCountOverdrawnAfterMission 9
scalar OsgEarthNet.uav[97] utilizationCountIdleState 16
scalar OsgEarthNet.uav[97] utilizationFail 0
scalar OsgEarthNet.uav[97] simulationTime 119728.62246044
scalar OsgEarthNet.uav[98] utilizationSecMission 15337.426891563
scalar OsgEarthNet.uav[98] utilizationSecMaintenance 10528.678578319
scalar OsgEarthNet.uav[98] utilizationSecCharge 86463.833841715
scalar OsgEarthNet.uav[98] utilizationSecIdle 7398.6821488399
scalar OsgEarthNet.uav[98] utilizationEnergyMission 71820.317962646
scalar OsgEarthNet.uav[98] utilizationEnergyMaintenance 48235.9257164
scalar OsgEarthNet.uav[98] utilizationEnergyCharge 116377.91064453
scalar OsgEarthNet.uav[98] utilizationEnergyOverdrawMission 0
scalar OsgEarthNet.uav[98] utilizationEnergyOverdrawMaintenance 981.93127441406
scalar OsgEarthNet.uav[98] utilizationCountMissions 24
scalar OsgEarthNet.uav[98] utilizationCountManeuversMission 373
scalar OsgEarthNet.uav[98] utilizationCountManeuversMaintenance 48
scalar OsgEarthNet.uav[98] utilizationCountChargeState 24
scalar OsgEarthNet.uav[98] utilizationCountOverdrawnAfterMission 5
scalar OsgEarthNet.uav[98] utilizationCountIdleState 13
scalar OsgEarthNet.uav[98] utilizationFail 0
scalar OsgEarthNet.uav[98] simulationTime 119728.62246044
scalar OsgEarthNet.uav[99] utilizationSecMission 15465.605781981
scalar OsgEarthNet.uav[99] utilizationSecMaintenance 9322.7919849726
scalar OsgEarthNet.uav[99] utilizationSecCharge 87667.309231924
scalar OsgEarthNet.uav[99] utilizationSecIdle 7272.9144615589
scalar OsgEarthNet.uav[99] utilizationEnergyMission 75541.923431396
scalar OsgEarthNet.uav[99] utilizationEnergyMaintenance 43034.132972717
scalar OsgEarthNet.uav[99] utilizationEnergyCharge 117057.60107422
scalar OsgEarthNet.uav[99] utilizationEnergyOverdrawMission 0
scalar OsgEarthNet.uav[99] utilizationEnergyOverdrawMaintenance 1011.830432415
scalar OsgEarthNet.uav[99] utilizationCountMissions 23
scalar OsgEarthNet.uav[99] utilizationCountManeuversMission 519
scalar OsgEarthNet.uav[99] utilizationCountManeuversMaintenance 46
scalar OsgEarthNet.uav[99] utilizationCountChargeState 23
scalar OsgEarthNet.uav[99] utilizationCountOverdrawnAfterMission 10
scalar OsgEarthNet.uav[99] utilizationCountIdleState 17
scalar OsgEarthNet.uav[99] utilizationFail 0
scalar OsgEarthNet.uav[99] simulationTime 119728.62246044
scalar OsgEarthNet.cs[0] usedPower 2100595.9168466
scalar OsgEarthNet.cs[0] chargedPower 2100595.9168466
scalar OsgEarthNet.cs[0] chargedMobileNodes 345
scalar OsgEarthNet.cs[0] reservations 420
scalar OsgEarthNet.cs[1] usedPower 2004875.5232613
scalar OsgEarthNet.cs[1] chargedPower 2004875.5232613
scalar OsgEarthNet.cs[1] chargedMobileNodes 345
scalar OsgEarthNet.cs[1] reservations 399
scalar OsgEarthNet.cs[2] usedPower 4163930.5132129
scalar OsgEarthNet.cs[2] chargedPower 4163930.5132129
scalar OsgEarthNet.cs[2] chargedMobileNodes 735
scalar OsgEarthNet.cs[2] reservations 836

