version 2
run Szenario_Hotel_Gabelbach-94-20180708-01:15:42-56224
attr configname Szenario_Hotel_Gabelbach
attr datetime 20180708-01:15:42
attr experiment Szenario_Hotel_Gabelbach
attr inifile omnetpp.ini
attr iterationvars "$quant=0.975, $replM=0"
attr iterationvarsf quant=0.975,replM=0-
attr measurement "$quant=0.975, $replM=0"
attr network OsgEarthNet
attr processid 56224
attr repetition 22
attr replication #22
attr resultdir results
attr runnumber 94
attr seedset 94
itervar quant 0.975
itervar replM 0
param *.osgEarthScene.scene "\"Szenario_Hotel_Gabelbach.earth\""
param *.playgroundLatitude 50.6830269
param *.playgroundLongitude 10.8538055
param *.playgroundWidth 3500m
param *.playgroundHeight 3500m
param *.numCSs 3
param *.numUAVs 100
param *.cs[0].posX 3537m
param *.cs[0].posY 965m
param *.cs[0].posZ 538m
param *.cs[1].posX 312m
param *.cs[1].posY 1262m
param *.cs[1].posZ 539m
param *.cs[2].posX 2185m
param *.cs[2].posY 3026m
param *.cs[2].posZ 777m
param *.uav[*].predictionQuantile 0.975
param *.uav[*].replacementMethod 0
param *.*.timeStep 10s
param *.uav[*].commandPreviewCommandCount 20
param *.missionControl.missionFiles "\"missions\\\\Szenario_WB_Hotel_Gabelbach_Mission_Hotel.waypoints,missions\\\\Szenario_WB_Hotel_Gabelbach_Mission_Kickelhahn.waypoints,missions\\\\Szenario_WB_Hotel_Gabelbach_Mission_Ilmenau_Sportplatz.waypoints,missions\\\\Szenario_WB_Hotel_Gabelbach_Mission_Manebach_Mitte.waypoints,missions\\\\Szenario_WB_Hotel_Gabelbach_Mission_Manebach_Sued.waypoints,missions\\\\Szenario_WB_Hotel_Gabelbach_Hover_HoheSchlaufe.waypoints,missions\\\\Szenario_WB_Hotel_Gabelbach_Hover_Kickelhahn.waypoints,missions\\\\Szenario_WB_Hotel_Gabelbach_Hover_Gabelbachskopf.waypoints,missions\\\\Szenario_WB_Hotel_Gabelbach_Hover_Dachskopf.waypoints\""
param *.uav[0].startX 3537m
param *.uav[0].startY 965m
param *.uav[0].startZ 539m
param *.uav[1].startX 312m
param *.uav[1].startY 1262m
param *.uav[1].startZ 540m
param *.uav[2].startX 2185m
param *.uav[2].startY 3026m
param *.uav[2].startZ 778m
param *.uav[3].startX 3537m
param *.uav[3].startY 965m
param *.uav[3].startZ 539m
param *.uav[4].startX 312m
param *.uav[4].startY 1262m
param *.uav[4].startZ 540m
param *.uav[5].startX 2185m
param *.uav[5].startY 3026m
param *.uav[5].startZ 778m
param *.uav[6].startX 3537m
param *.uav[6].startY 965m
param *.uav[6].startZ 539m
param *.uav[7].startX 312m
param *.uav[7].startY 1262m
param *.uav[7].startZ 540m
param *.uav[8].startX 2185m
param *.uav[8].startY 3026m
param *.uav[8].startZ 778m
param *.uav[9].startX 3537m
param *.uav[9].startY 965m
param *.uav[9].startZ 539m
param *.uav[10].startX 3537m
param *.uav[10].startY 965m
param *.uav[10].startZ 539m
param *.uav[11].startX 312m
param *.uav[11].startY 1262m
param *.uav[11].startZ 540m
param *.uav[12].startX 2185m
param *.uav[12].startY 3026m
param *.uav[12].startZ 778m
param *.uav[13].startX 3537m
param *.uav[13].startY 965m
param *.uav[13].startZ 539m
param *.uav[14].startX 312m
param *.uav[14].startY 1262m
param *.uav[14].startZ 540m
param *.uav[15].startX 2185m
param *.uav[15].startY 3026m
param *.uav[15].startZ 778m
param *.uav[16].startX 3537m
param *.uav[16].startY 965m
param *.uav[16].startZ 539m
param *.uav[17].startX 312m
param *.uav[17].startY 1262m
param *.uav[17].startZ 540m
param *.uav[18].startX 2185m
param *.uav[18].startY 3026m
param *.uav[18].startZ 778m
param *.uav[19].startX 3537m
param *.uav[19].startY 965m
param *.uav[19].startZ 539m
param *.uav[20].startX 3537m
param *.uav[20].startY 965m
param *.uav[20].startZ 539m
param *.uav[21].startX 312m
param *.uav[21].startY 1262m
param *.uav[21].startZ 540m
param *.uav[22].startX 2185m
param *.uav[22].startY 3026m
param *.uav[22].startZ 778m
param *.uav[23].startX 3537m
param *.uav[23].startY 965m
param *.uav[23].startZ 539m
param *.uav[24].startX 312m
param *.uav[24].startY 1262m
param *.uav[24].startZ 540m
param *.uav[25].startX 2185m
param *.uav[25].startY 3026m
param *.uav[25].startZ 778m
param *.uav[26].startX 3537m
param *.uav[26].startY 965m
param *.uav[26].startZ 539m
param *.uav[27].startX 312m
param *.uav[27].startY 1262m
param *.uav[27].startZ 540m
param *.uav[28].startX 2185m
param *.uav[28].startY 3026m
param *.uav[28].startZ 778m
param *.uav[29].startX 3537m
param *.uav[29].startY 965m
param *.uav[29].startZ 539m
param *.uav[30].startX 3537m
param *.uav[30].startY 965m
param *.uav[30].startZ 539m
param *.uav[31].startX 312m
param *.uav[31].startY 1262m
param *.uav[31].startZ 540m
param *.uav[32].startX 2185m
param *.uav[32].startY 3026m
param *.uav[32].startZ 778m
param *.uav[33].startX 3537m
param *.uav[33].startY 965m
param *.uav[33].startZ 539m
param *.uav[34].startX 312m
param *.uav[34].startY 1262m
param *.uav[34].startZ 540m
param *.uav[35].startX 2185m
param *.uav[35].startY 3026m
param *.uav[35].startZ 778m
param *.uav[36].startX 3537m
param *.uav[36].startY 965m
param *.uav[36].startZ 539m
param *.uav[37].startX 312m
param *.uav[37].startY 1262m
param *.uav[37].startZ 540m
param *.uav[38].startX 2185m
param *.uav[38].startY 3026m
param *.uav[38].startZ 778m
param *.uav[39].startX 3537m
param *.uav[39].startY 965m
param *.uav[39].startZ 539m
param *.uav[40].startX 3537m
param *.uav[40].startY 965m
param *.uav[40].startZ 539m
param *.uav[41].startX 312m
param *.uav[41].startY 1262m
param *.uav[41].startZ 540m
param *.uav[42].startX 2185m
param *.uav[42].startY 3026m
param *.uav[42].startZ 778m
param *.uav[43].startX 3537m
param *.uav[43].startY 965m
param *.uav[43].startZ 539m
param *.uav[44].startX 312m
param *.uav[44].startY 1262m
param *.uav[44].startZ 540m
param *.uav[45].startX 2185m
param *.uav[45].startY 3026m
param *.uav[45].startZ 778m
param *.uav[46].startX 3537m
param *.uav[46].startY 965m
param *.uav[46].startZ 539m
param *.uav[47].startX 312m
param *.uav[47].startY 1262m
param *.uav[47].startZ 540m
param *.uav[48].startX 2185m
param *.uav[48].startY 3026m
param *.uav[48].startZ 778m
param *.uav[49].startX 3537m
param *.uav[49].startY 965m
param *.uav[49].startZ 539m
param *.uav[50].startX 3537m
param *.uav[50].startY 965m
param *.uav[50].startZ 539m
param *.uav[51].startX 312m
param *.uav[51].startY 1262m
param *.uav[51].startZ 540m
param *.uav[52].startX 2185m
param *.uav[52].startY 3026m
param *.uav[52].startZ 778m
param *.uav[53].startX 3537m
param *.uav[53].startY 965m
param *.uav[53].startZ 539m
param *.uav[54].startX 312m
param *.uav[54].startY 1262m
param *.uav[54].startZ 540m
param *.uav[55].startX 2185m
param *.uav[55].startY 3026m
param *.uav[55].startZ 778m
param *.uav[56].startX 3537m
param *.uav[56].startY 965m
param *.uav[56].startZ 539m
param *.uav[57].startX 312m
param *.uav[57].startY 1262m
param *.uav[57].startZ 540m
param *.uav[58].startX 2185m
param *.uav[58].startY 3026m
param *.uav[58].startZ 778m
param *.uav[59].startX 3537m
param *.uav[59].startY 965m
param *.uav[59].startZ 539m
param *.uav[60].startX 3537m
param *.uav[60].startY 965m
param *.uav[60].startZ 539m
param *.uav[61].startX 312m
param *.uav[61].startY 1262m
param *.uav[61].startZ 540m
param *.uav[62].startX 2185m
param *.uav[62].startY 3026m
param *.uav[62].startZ 778m
param *.uav[63].startX 3537m
param *.uav[63].startY 965m
param *.uav[63].startZ 539m
param *.uav[64].startX 312m
param *.uav[64].startY 1262m
param *.uav[64].startZ 540m
param *.uav[65].startX 2185m
param *.uav[65].startY 3026m
param *.uav[65].startZ 778m
param *.uav[66].startX 3537m
param *.uav[66].startY 965m
param *.uav[66].startZ 539m
param *.uav[67].startX 312m
param *.uav[67].startY 1262m
param *.uav[67].startZ 540m
param *.uav[68].startX 2185m
param *.uav[68].startY 3026m
param *.uav[68].startZ 778m
param *.uav[69].startX 3537m
param *.uav[69].startY 965m
param *.uav[69].startZ 539m
param *.uav[70].startX 3537m
param *.uav[70].startY 965m
param *.uav[70].startZ 539m
param *.uav[71].startX 312m
param *.uav[71].startY 1262m
param *.uav[71].startZ 540m
param *.uav[72].startX 2185m
param *.uav[72].startY 3026m
param *.uav[72].startZ 778m
param *.uav[73].startX 3537m
param *.uav[73].startY 965m
param *.uav[73].startZ 539m
param *.uav[74].startX 312m
param *.uav[74].startY 1262m
param *.uav[74].startZ 540m
param *.uav[75].startX 2185m
param *.uav[75].startY 3026m
param *.uav[75].startZ 778m
param *.uav[76].startX 3537m
param *.uav[76].startY 965m
param *.uav[76].startZ 539m
param *.uav[77].startX 312m
param *.uav[77].startY 1262m
param *.uav[77].startZ 540m
param *.uav[78].startX 2185m
param *.uav[78].startY 3026m
param *.uav[78].startZ 778m
param *.uav[79].startX 3537m
param *.uav[79].startY 965m
param *.uav[79].startZ 539m
param *.uav[80].startX 3537m
param *.uav[80].startY 965m
param *.uav[80].startZ 539m
param *.uav[81].startX 312m
param *.uav[81].startY 1262m
param *.uav[81].startZ 540m
param *.uav[82].startX 2185m
param *.uav[82].startY 3026m
param *.uav[82].startZ 778m
param *.uav[83].startX 3537m
param *.uav[83].startY 965m
param *.uav[83].startZ 539m
param *.uav[84].startX 312m
param *.uav[84].startY 1262m
param *.uav[84].startZ 540m
param *.uav[85].startX 2185m
param *.uav[85].startY 3026m
param *.uav[85].startZ 778m
param *.uav[86].startX 3537m
param *.uav[86].startY 965m
param *.uav[86].startZ 539m
param *.uav[87].startX 312m
param *.uav[87].startY 1262m
param *.uav[87].startZ 540m
param *.uav[88].startX 2185m
param *.uav[88].startY 3026m
param *.uav[88].startZ 778m
param *.uav[89].startX 3537m
param *.uav[89].startY 965m
param *.uav[89].startZ 539m
param *.uav[90].startX 3537m
param *.uav[90].startY 965m
param *.uav[90].startZ 539m
param *.uav[91].startX 312m
param *.uav[91].startY 1262m
param *.uav[91].startZ 540m
param *.uav[92].startX 2185m
param *.uav[92].startY 3026m
param *.uav[92].startZ 778m
param *.uav[93].startX 3537m
param *.uav[93].startY 965m
param *.uav[93].startZ 539m
param *.uav[94].startX 312m
param *.uav[94].startY 1262m
param *.uav[94].startZ 540m
param *.uav[95].startX 2185m
param *.uav[95].startY 3026m
param *.uav[95].startZ 778m
param *.uav[96].startX 3537m
param *.uav[96].startY 965m
param *.uav[96].startZ 539m
param *.uav[97].startX 312m
param *.uav[97].startY 1262m
param *.uav[97].startZ 540m
param *.uav[98].startX 2185m
param *.uav[98].startY 3026m
param *.uav[98].startZ 778m
param *.uav[99].startX 3537m
param *.uav[99].startY 965m
param *.uav[99].startZ 539m
param *.osgEarthScene.scene "\"boston.earth\""
param *.playgroundLatitude 42.3558
param *.playgroundLongitude -71.0677
param *.playgroundWidth 400m
param *.playgroundHeight 200m
param *.channelController.connectionColor "\"#0000FF40\""
param *.channelController.showConnections false
param *.uav[*].modelURL "\"quadrocopter.small.obj.15.scale.0,0,90.rot\""
param *.uav[*].labelColor "\"#FF7C00CC\""
param *.uav[*].label2Color "\"#FF7C00EE\""
param *.uav[*].batteryCapacity 5200mAh
param *.uav[*].batteryRemaining uav[index].batteryCapacity
param *.uav[*].predictionQuantile 0.95
param *.uav[*].replacementMethod 2
param *.uav[*].weightedSumWeight 0.5
param *.cs[*].modelURL "\"chargingstation_v1.osgt.1.scale.0,0,0.rot.0,0,-15e-1.trans\""
param *.cs[*].spotsWaiting 999
param *.cs[*].spotsCharging 999
param *.cs[*].chargeEffectivenessPercentage 100
param *.cs[*].nonLinearPhaseStartPercentage 85
param *.cs[*].chargeCurrent 6.0A
param *.cs[*].prioritizeFastCharge true
param *.missionControl.replacementSearchMethod 0
param *.*.timeStep 9s

scalar OsgEarthNet.uav[0] utilizationSecMission 26211.796483661
scalar OsgEarthNet.uav[0] utilizationSecMaintenance 21446.190516339
scalar OsgEarthNet.uav[0] utilizationSecCharge 170530
scalar OsgEarthNet.uav[0] utilizationSecIdle 41012.012
scalar OsgEarthNet.uav[0] utilizationEnergyMission 125770.83111039
scalar OsgEarthNet.uav[0] utilizationEnergyMaintenance 101126.30536652
scalar OsgEarthNet.uav[0] utilizationEnergyCharge 223434.29711914
scalar OsgEarthNet.uav[0] utilizationEnergyOverdrawMission 0
scalar OsgEarthNet.uav[0] utilizationEnergyOverdrawMaintenance 0
scalar OsgEarthNet.uav[0] utilizationCountMissions 51
scalar OsgEarthNet.uav[0] utilizationCountManeuversMission 845
scalar OsgEarthNet.uav[0] utilizationCountManeuversMaintenance 103
scalar OsgEarthNet.uav[0] utilizationCountChargeState 51
scalar OsgEarthNet.uav[0] utilizationCountOverdrawnAfterMission 0
scalar OsgEarthNet.uav[0] utilizationCountIdleState 52
scalar OsgEarthNet.uav[0] utilizationFail 0
scalar OsgEarthNet.uav[0] simulationTime 259200
scalar OsgEarthNet.uav[1] utilizationSecMission 19614.163049444
scalar OsgEarthNet.uav[1] utilizationSecMaintenance 16874.590357796
scalar OsgEarthNet.uav[1] utilizationSecCharge 129945.80050407
scalar OsgEarthNet.uav[1] utilizationSecIdle 92765.445088691
scalar OsgEarthNet.uav[1] utilizationEnergyMission 92238.055015564
scalar OsgEarthNet.uav[1] utilizationEnergyMaintenance 77339.164291382
scalar OsgEarthNet.uav[1] utilizationEnergyCharge 170443.00927734
scalar OsgEarthNet.uav[1] utilizationEnergyOverdrawMission 0
scalar OsgEarthNet.uav[1] utilizationEnergyOverdrawMaintenance 0
scalar OsgEarthNet.uav[1] utilizationCountMissions 39
scalar OsgEarthNet.uav[1] utilizationCountManeuversMission 484
scalar OsgEarthNet.uav[1] utilizationCountManeuversMaintenance 78
scalar OsgEarthNet.uav[1] utilizationCountChargeState 39
scalar OsgEarthNet.uav[1] utilizationCountOverdrawnAfterMission 0
scalar OsgEarthNet.uav[1] utilizationCountIdleState 39
scalar OsgEarthNet.uav[1] utilizationFail 0
scalar OsgEarthNet.uav[1] simulationTime 259200
scalar OsgEarthNet.uav[2] utilizationSecMission 25265.772952876
scalar OsgEarthNet.uav[2] utilizationSecMaintenance 23579.510528417
scalar OsgEarthNet.uav[2] utilizationSecCharge 176140
scalar OsgEarthNet.uav[2] utilizationSecIdle 34214.715518707
scalar OsgEarthNet.uav[2] utilizationEnergyMission 120616.47451782
scalar OsgEarthNet.uav[2] utilizationEnergyMaintenance 108830.50752258
scalar OsgEarthNet.uav[2] utilizationEnergyCharge 230094.65087891
scalar OsgEarthNet.uav[2] utilizationEnergyOverdrawMission 0
scalar OsgEarthNet.uav[2] utilizationEnergyOverdrawMaintenance 0
scalar OsgEarthNet.uav[2] utilizationCountMissions 53
scalar OsgEarthNet.uav[2] utilizationCountManeuversMission 743
scalar OsgEarthNet.uav[2] utilizationCountManeuversMaintenance 106
scalar OsgEarthNet.uav[2] utilizationCountChargeState 53
scalar OsgEarthNet.uav[2] utilizationCountOverdrawnAfterMission 0
scalar OsgEarthNet.uav[2] utilizationCountIdleState 54
scalar OsgEarthNet.uav[2] utilizationFail 0
scalar OsgEarthNet.uav[2] simulationTime 259200
scalar OsgEarthNet.uav[3] utilizationSecMission 20281.652286779
scalar OsgEarthNet.uav[3] utilizationSecMaintenance 19447.015158628
scalar OsgEarthNet.uav[3] utilizationSecCharge 145000
scalar OsgEarthNet.uav[3] utilizationSecIdle 74471.331554593
scalar OsgEarthNet.uav[3] utilizationEnergyMission 97890.425861359
scalar OsgEarthNet.uav[3] utilizationEnergyMaintenance 90893.093662262
scalar OsgEarthNet.uav[3] utilizationEnergyCharge 188937.39819336
scalar OsgEarthNet.uav[3] utilizationEnergyOverdrawMission 0
scalar OsgEarthNet.uav[3] utilizationEnergyOverdrawMaintenance 0
scalar OsgEarthNet.uav[3] utilizationCountMissions 44
scalar OsgEarthNet.uav[3] utilizationCountManeuversMission 637
scalar OsgEarthNet.uav[3] utilizationCountManeuversMaintenance 88
scalar OsgEarthNet.uav[3] utilizationCountChargeState 44
scalar OsgEarthNet.uav[3] utilizationCountOverdrawnAfterMission 0
scalar OsgEarthNet.uav[3] utilizationCountIdleState 45
scalar OsgEarthNet.uav[3] utilizationFail 0
scalar OsgEarthNet.uav[3] simulationTime 259200
scalar OsgEarthNet.uav[4] utilizationSecMission 26509.660910839
scalar OsgEarthNet.uav[4] utilizationSecMaintenance 22773.329620838
scalar OsgEarthNet.uav[4] utilizationSecCharge 177695.95266436
scalar OsgEarthNet.uav[4] utilizationSecIdle 32221.055803961
scalar OsgEarthNet.uav[4] utilizationEnergyMission 127632.03221512
scalar OsgEarthNet.uav[4] utilizationEnergyMaintenance 106718.0561409
scalar OsgEarthNet.uav[4] utilizationEnergyCharge 233198.29272461
scalar OsgEarthNet.uav[4] utilizationEnergyOverdrawMission 0
scalar OsgEarthNet.uav[4] utilizationEnergyOverdrawMaintenance 0
scalar OsgEarthNet.uav[4] utilizationCountMissions 53
scalar OsgEarthNet.uav[4] utilizationCountManeuversMission 734
scalar OsgEarthNet.uav[4] utilizationCountManeuversMaintenance 106
scalar OsgEarthNet.uav[4] utilizationCountChargeState 53
scalar OsgEarthNet.uav[4] utilizationCountOverdrawnAfterMission 0
scalar OsgEarthNet.uav[4] utilizationCountIdleState 53
scalar OsgEarthNet.uav[4] utilizationFail 0
scalar OsgEarthNet.uav[4] simulationTime 259200
scalar OsgEarthNet.uav[5] utilizationSecMission 25156.30676552
scalar OsgEarthNet.uav[5] utilizationSecMaintenance 25270.07451269
scalar OsgEarthNet.uav[5] utilizationSecCharge 180536.16745776
scalar OsgEarthNet.uav[5] utilizationSecIdle 28237.450264031
scalar OsgEarthNet.uav[5] utilizationEnergyMission 121654.8949585
scalar OsgEarthNet.uav[5] utilizationEnergyMaintenance 116302.31726074
scalar OsgEarthNet.uav[5] utilizationEnergyCharge 234701.86193848
scalar OsgEarthNet.uav[5] utilizationEnergyOverdrawMission 0
scalar OsgEarthNet.uav[5] utilizationEnergyOverdrawMaintenance 0
scalar OsgEarthNet.uav[5] utilizationCountMissions 56
scalar OsgEarthNet.uav[5] utilizationCountManeuversMission 797
scalar OsgEarthNet.uav[5] utilizationCountManeuversMaintenance 112
scalar OsgEarthNet.uav[5] utilizationCountChargeState 56
scalar OsgEarthNet.uav[5] utilizationCountOverdrawnAfterMission 0
scalar OsgEarthNet.uav[5] utilizationCountIdleState 56
scalar OsgEarthNet.uav[5] utilizationFail 0
scalar OsgEarthNet.uav[5] simulationTime 259200
scalar OsgEarthNet.uav[6] utilizationSecMission 21857.927082331
scalar OsgEarthNet.uav[6] utilizationSecMaintenance 22166.873272401
scalar OsgEarthNet.uav[6] utilizationSecCharge 157133.18564527
scalar OsgEarthNet.uav[6] utilizationSecIdle 58042.013
scalar OsgEarthNet.uav[6] utilizationEnergyMission 106121.024086
scalar OsgEarthNet.uav[6] utilizationEnergyMaintenance 102795.56977844
scalar OsgEarthNet.uav[6] utilizationEnergyCharge 206215.42736816
scalar OsgEarthNet.uav[6] utilizationEnergyOverdrawMission 0
scalar OsgEarthNet.uav[6] utilizationEnergyOverdrawMaintenance 0
scalar OsgEarthNet.uav[6] utilizationCountMissions 48
scalar OsgEarthNet.uav[6] utilizationCountManeuversMission 794
scalar OsgEarthNet.uav[6] utilizationCountManeuversMaintenance 96
scalar OsgEarthNet.uav[6] utilizationCountChargeState 48
scalar OsgEarthNet.uav[6] utilizationCountOverdrawnAfterMission 0
scalar OsgEarthNet.uav[6] utilizationCountIdleState 48
scalar OsgEarthNet.uav[6] utilizationFail 0
scalar OsgEarthNet.uav[6] simulationTime 259200
scalar OsgEarthNet.uav[7] utilizationSecMission 23669.159600495
scalar OsgEarthNet.uav[7] utilizationSecMaintenance 26244.037714133
scalar OsgEarthNet.uav[7] utilizationSecCharge 178687.41768079
scalar OsgEarthNet.uav[7] utilizationSecIdle 30599.384004586
scalar OsgEarthNet.uav[7] utilizationEnergyMission 115416.23652267
scalar OsgEarthNet.uav[7] utilizationEnergyMaintenance 121526.51806259
scalar OsgEarthNet.uav[7] utilizationEnergyCharge 233240.74853516
scalar OsgEarthNet.uav[7] utilizationEnergyOverdrawMission 0
scalar OsgEarthNet.uav[7] utilizationEnergyOverdrawMaintenance 310.06513214111
scalar OsgEarthNet.uav[7] utilizationCountMissions 55
scalar OsgEarthNet.uav[7] utilizationCountManeuversMission 798
scalar OsgEarthNet.uav[7] utilizationCountManeuversMaintenance 110
scalar OsgEarthNet.uav[7] utilizationCountChargeState 55
scalar OsgEarthNet.uav[7] utilizationCountOverdrawnAfterMission 2
scalar OsgEarthNet.uav[7] utilizationCountIdleState 55
scalar OsgEarthNet.uav[7] utilizationFail 0
scalar OsgEarthNet.uav[7] simulationTime 259200
scalar OsgEarthNet.uav[8] utilizationSecMission 22223.674203459
scalar OsgEarthNet.uav[8] utilizationSecMaintenance 19852.898130758
scalar OsgEarthNet.uav[8] utilizationSecCharge 152370
scalar OsgEarthNet.uav[8] utilizationSecIdle 64753.426665783
scalar OsgEarthNet.uav[8] utilizationEnergyMission 106496.75372314
scalar OsgEarthNet.uav[8] utilizationEnergyMaintenance 91100.685573578
scalar OsgEarthNet.uav[8] utilizationEnergyCharge 198763.83227539
scalar OsgEarthNet.uav[8] utilizationEnergyOverdrawMission 0
scalar OsgEarthNet.uav[8] utilizationEnergyOverdrawMaintenance 0
scalar OsgEarthNet.uav[8] utilizationCountMissions 46
scalar OsgEarthNet.uav[8] utilizationCountManeuversMission 692
scalar OsgEarthNet.uav[8] utilizationCountManeuversMaintenance 92
scalar OsgEarthNet.uav[8] utilizationCountChargeState 46
scalar OsgEarthNet.uav[8] utilizationCountOverdrawnAfterMission 0
scalar OsgEarthNet.uav[8] utilizationCountIdleState 47
scalar OsgEarthNet.uav[8] utilizationFail 0
scalar OsgEarthNet.uav[8] simulationTime 259200
scalar OsgEarthNet.uav[9] utilizationSecMission 25455.990360992
scalar OsgEarthNet.uav[9] utilizationSecMaintenance 23870.915746566
scalar OsgEarthNet.uav[9] utilizationSecCharge 177219.07462271
scalar OsgEarthNet.uav[9] utilizationSecIdle 32654.018269728
scalar OsgEarthNet.uav[9] utilizationEnergyMission 124181.83256531
scalar OsgEarthNet.uav[9] utilizationEnergyMaintenance 110959.39043808
scalar OsgEarthNet.uav[9] utilizationEnergyCharge 232002.5715332
scalar OsgEarthNet.uav[9] utilizationEnergyOverdrawMission 0
scalar OsgEarthNet.uav[9] utilizationEnergyOverdrawMaintenance 0
scalar OsgEarthNet.uav[9] utilizationCountMissions 54
scalar OsgEarthNet.uav[9] utilizationCountManeuversMission 812
scalar OsgEarthNet.uav[9] utilizationCountManeuversMaintenance 108
scalar OsgEarthNet.uav[9] utilizationCountChargeState 54
scalar OsgEarthNet.uav[9] utilizationCountOverdrawnAfterMission 0
scalar OsgEarthNet.uav[9] utilizationCountIdleState 54
scalar OsgEarthNet.uav[9] utilizationFail 0
scalar OsgEarthNet.uav[9] simulationTime 259200
scalar OsgEarthNet.uav[10] utilizationSecMission 2176.4477762093
scalar OsgEarthNet.uav[10] utilizationSecMaintenance 2485.6426273905
scalar OsgEarthNet.uav[10] utilizationSecCharge 16460
scalar OsgEarthNet.uav[10] utilizationSecIdle 238077.9085964
scalar OsgEarthNet.uav[10] utilizationEnergyMission 10003.029624939
scalar OsgEarthNet.uav[10] utilizationEnergyMaintenance 11339.777137756
scalar OsgEarthNet.uav[10] utilizationEnergyCharge 21292.478271484
scalar OsgEarthNet.uav[10] utilizationEnergyOverdrawMission 0
scalar OsgEarthNet.uav[10] utilizationEnergyOverdrawMaintenance 0
scalar OsgEarthNet.uav[10] utilizationCountMissions 5
scalar OsgEarthNet.uav[10] utilizationCountManeuversMission 43
scalar OsgEarthNet.uav[10] utilizationCountManeuversMaintenance 10
scalar OsgEarthNet.uav[10] utilizationCountChargeState 5
scalar OsgEarthNet.uav[10] utilizationCountOverdrawnAfterMission 0
scalar OsgEarthNet.uav[10] utilizationCountIdleState 6
scalar OsgEarthNet.uav[10] utilizationFail 0
scalar OsgEarthNet.uav[10] simulationTime 259200
scalar OsgEarthNet.uav[11] utilizationSecMission 22739.128497054
scalar OsgEarthNet.uav[11] utilizationSecMaintenance 20579.393697313
scalar OsgEarthNet.uav[11] utilizationSecCharge 157690
scalar OsgEarthNet.uav[11] utilizationSecIdle 58191.476805633
scalar OsgEarthNet.uav[11] utilizationEnergyMission 111326.90427399
scalar OsgEarthNet.uav[11] utilizationEnergyMaintenance 96653.30222702
scalar OsgEarthNet.uav[11] utilizationEnergyCharge 207044.55566406
scalar OsgEarthNet.uav[11] utilizationEnergyOverdrawMission 0
scalar OsgEarthNet.uav[11] utilizationEnergyOverdrawMaintenance 0
scalar OsgEarthNet.uav[11] utilizationCountMissions 47
scalar OsgEarthNet.uav[11] utilizationCountManeuversMission 721
scalar OsgEarthNet.uav[11] utilizationCountManeuversMaintenance 94
scalar OsgEarthNet.uav[11] utilizationCountChargeState 47
scalar OsgEarthNet.uav[11] utilizationCountOverdrawnAfterMission 0
scalar OsgEarthNet.uav[11] utilizationCountIdleState 48
scalar OsgEarthNet.uav[11] utilizationFail 0
scalar OsgEarthNet.uav[11] simulationTime 259200
scalar OsgEarthNet.uav[12] utilizationSecMission 26818.159824361
scalar OsgEarthNet.uav[12] utilizationSecMaintenance 25156.893102334
scalar OsgEarthNet.uav[12] utilizationSecCharge 184572.94607331
scalar OsgEarthNet.uav[12] utilizationSecIdle 22652
scalar OsgEarthNet.uav[12] utilizationEnergyMission 128747.51584711
scalar OsgEarthNet.uav[12] utilizationEnergyMaintenance 117715.39493942
scalar OsgEarthNet.uav[12] utilizationEnergyCharge 242331.85858154
scalar OsgEarthNet.uav[12] utilizationEnergyOverdrawMission 0
scalar OsgEarthNet.uav[12] utilizationEnergyOverdrawMaintenance 0
scalar OsgEarthNet.uav[12] utilizationCountMissions 56
scalar OsgEarthNet.uav[12] utilizationCountManeuversMission 731
scalar OsgEarthNet.uav[12] utilizationCountManeuversMaintenance 111
scalar OsgEarthNet.uav[12] utilizationCountChargeState 56
scalar OsgEarthNet.uav[12] utilizationCountOverdrawnAfterMission 0
scalar OsgEarthNet.uav[12] utilizationCountIdleState 56
scalar OsgEarthNet.uav[12] utilizationFail 0
scalar OsgEarthNet.uav[12] simulationTime 259200
scalar OsgEarthNet.uav[13] utilizationSecMission 16887.465409903
scalar OsgEarthNet.uav[13] utilizationSecMaintenance 15660.407090706
scalar OsgEarthNet.uav[13] utilizationSecCharge 117341.17624373
scalar OsgEarthNet.uav[13] utilizationSecIdle 109310.95025566
scalar OsgEarthNet.uav[13] utilizationEnergyMission 80471.119094849
scalar OsgEarthNet.uav[13] utilizationEnergyMaintenance 73433.383281708
scalar OsgEarthNet.uav[13] utilizationEnergyCharge 153431.11645508
scalar OsgEarthNet.uav[13] utilizationEnergyOverdrawMission 0
scalar OsgEarthNet.uav[13] utilizationEnergyOverdrawMaintenance 0
scalar OsgEarthNet.uav[13] utilizationCountMissions 36
scalar OsgEarthNet.uav[13] utilizationCountManeuversMission 526
scalar OsgEarthNet.uav[13] utilizationCountManeuversMaintenance 72
scalar OsgEarthNet.uav[13] utilizationCountChargeState 36
scalar OsgEarthNet.uav[13] utilizationCountOverdrawnAfterMission 0
scalar OsgEarthNet.uav[13] utilizationCountIdleState 36
scalar OsgEarthNet.uav[13] utilizationFail 0
scalar OsgEarthNet.uav[13] simulationTime 259200
scalar OsgEarthNet.uav[14] utilizationSecMission 23667.031427594
scalar OsgEarthNet.uav[14] utilizationSecMaintenance 23931.419874245
scalar OsgEarthNet.uav[14] utilizationSecCharge 169181.52941525
scalar OsgEarthNet.uav[14] utilizationSecIdle 42420.018282913
scalar OsgEarthNet.uav[14] utilizationEnergyMission 113621.76425171
scalar OsgEarthNet.uav[14] utilizationEnergyMaintenance 111376.51292419
scalar OsgEarthNet.uav[14] utilizationEnergyCharge 221250.15606689
scalar OsgEarthNet.uav[14] utilizationEnergyOverdrawMission 0
scalar OsgEarthNet.uav[14] utilizationEnergyOverdrawMaintenance 0
scalar OsgEarthNet.uav[14] utilizationCountMissions 52
scalar OsgEarthNet.uav[14] utilizationCountManeuversMission 734
scalar OsgEarthNet.uav[14] utilizationCountManeuversMaintenance 104
scalar OsgEarthNet.uav[14] utilizationCountChargeState 52
scalar OsgEarthNet.uav[14] utilizationCountOverdrawnAfterMission 0
scalar OsgEarthNet.uav[14] utilizationCountIdleState 52
scalar OsgEarthNet.uav[14] utilizationFail 0
scalar OsgEarthNet.uav[14] simulationTime 259200
scalar OsgEarthNet.uav[15] utilizationSecMission 24613.655781442
scalar OsgEarthNet.uav[15] utilizationSecMaintenance 23921.56709235
scalar OsgEarthNet.uav[15] utilizationSecCharge 175792.77212621
scalar OsgEarthNet.uav[15] utilizationSecIdle 34872.004
scalar OsgEarthNet.uav[15] utilizationEnergyMission 119583.16571045
scalar OsgEarthNet.uav[15] utilizationEnergyMaintenance 111352.96187973
scalar OsgEarthNet.uav[15] utilizationEnergyCharge 230854.83349609
scalar OsgEarthNet.uav[15] utilizationEnergyOverdrawMission 0
scalar OsgEarthNet.uav[15] utilizationEnergyOverdrawMaintenance 0
scalar OsgEarthNet.uav[15] utilizationCountMissions 53
scalar OsgEarthNet.uav[15] utilizationCountManeuversMission 741
scalar OsgEarthNet.uav[15] utilizationCountManeuversMaintenance 106
scalar OsgEarthNet.uav[15] utilizationCountChargeState 53
scalar OsgEarthNet.uav[15] utilizationCountOverdrawnAfterMission 0
scalar OsgEarthNet.uav[15] utilizationCountIdleState 53
scalar OsgEarthNet.uav[15] utilizationFail 0
scalar OsgEarthNet.uav[15] simulationTime 259200
scalar OsgEarthNet.uav[16] utilizationSecMission 26860.484725275
scalar OsgEarthNet.uav[16] utilizationSecMaintenance 21691.789802196
scalar OsgEarthNet.uav[16] utilizationSecCharge 176885.71747253
scalar OsgEarthNet.uav[16] utilizationSecIdle 33762.007
scalar OsgEarthNet.uav[16] utilizationEnergyMission 128481.89162827
scalar OsgEarthNet.uav[16] utilizationEnergyMaintenance 101981.74949265
scalar OsgEarthNet.uav[16] utilizationEnergyCharge 231356.79174805
scalar OsgEarthNet.uav[16] utilizationEnergyOverdrawMission 0
scalar OsgEarthNet.uav[16] utilizationEnergyOverdrawMaintenance 0
scalar OsgEarthNet.uav[16] utilizationCountMissions 54
scalar OsgEarthNet.uav[16] utilizationCountManeuversMission 883
scalar OsgEarthNet.uav[16] utilizationCountManeuversMaintenance 108
scalar OsgEarthNet.uav[16] utilizationCountChargeState 54
scalar OsgEarthNet.uav[16] utilizationCountOverdrawnAfterMission 0
scalar OsgEarthNet.uav[16] utilizationCountIdleState 54
scalar OsgEarthNet.uav[16] utilizationFail 0
scalar OsgEarthNet.uav[16] simulationTime 259200
scalar OsgEarthNet.uav[17] utilizationSecMission 25801.306050784
scalar OsgEarthNet.uav[17] utilizationSecMaintenance 22577.22609849
scalar OsgEarthNet.uav[17] utilizationSecCharge 171751.45891614
scalar OsgEarthNet.uav[17] utilizationSecIdle 39070.007934583
scalar OsgEarthNet.uav[17] utilizationEnergyMission 123697.92050171
scalar OsgEarthNet.uav[17] utilizationEnergyMaintenance 105250.91196823
scalar OsgEarthNet.uav[17] utilizationEnergyCharge 225477.42626953
scalar OsgEarthNet.uav[17] utilizationEnergyOverdrawMission 0
scalar OsgEarthNet.uav[17] utilizationEnergyOverdrawMaintenance 0
scalar OsgEarthNet.uav[17] utilizationCountMissions 52
scalar OsgEarthNet.uav[17] utilizationCountManeuversMission 750
scalar OsgEarthNet.uav[17] utilizationCountManeuversMaintenance 104
scalar OsgEarthNet.uav[17] utilizationCountChargeState 52
scalar OsgEarthNet.uav[17] utilizationCountOverdrawnAfterMission 0
scalar OsgEarthNet.uav[17] utilizationCountIdleState 52
scalar OsgEarthNet.uav[17] utilizationFail 0
scalar OsgEarthNet.uav[17] simulationTime 259200
scalar OsgEarthNet.uav[18] utilizationSecMission 22191.140778931
scalar OsgEarthNet.uav[18] utilizationSecMaintenance 23507.268507464
scalar OsgEarthNet.uav[18] utilizationSecCharge 165949.58371361
scalar OsgEarthNet.uav[18] utilizationSecIdle 47552.006
scalar OsgEarthNet.uav[18] utilizationEnergyMission 109095.58956909
scalar OsgEarthNet.uav[18] utilizationEnergyMaintenance 110285.4943428
scalar OsgEarthNet.uav[18] utilizationEnergyCharge 218238.44287109
scalar OsgEarthNet.uav[18] utilizationEnergyOverdrawMission 0
scalar OsgEarthNet.uav[18] utilizationEnergyOverdrawMaintenance 27.241546630859
scalar OsgEarthNet.uav[18] utilizationCountMissions 50
scalar OsgEarthNet.uav[18] utilizationCountManeuversMission 763
scalar OsgEarthNet.uav[18] utilizationCountManeuversMaintenance 100
scalar OsgEarthNet.uav[18] utilizationCountChargeState 50
scalar OsgEarthNet.uav[18] utilizationCountOverdrawnAfterMission 1
scalar OsgEarthNet.uav[18] utilizationCountIdleState 50
scalar OsgEarthNet.uav[18] utilizationFail 0
scalar OsgEarthNet.uav[18] simulationTime 259200
scalar OsgEarthNet.uav[19] utilizationSecMission 21446.586502406
scalar OsgEarthNet.uav[19] utilizationSecMaintenance 19902.28560238
scalar OsgEarthNet.uav[19] utilizationSecCharge 149669.11289521
scalar OsgEarthNet.uav[19] utilizationSecIdle 68182.014
scalar OsgEarthNet.uav[19] utilizationEnergyMission 102232.22425842
scalar OsgEarthNet.uav[19] utilizationEnergyMaintenance 93242.628627777
scalar OsgEarthNet.uav[19] utilizationEnergyCharge 196644.6730957
scalar OsgEarthNet.uav[19] utilizationEnergyOverdrawMission 0
scalar OsgEarthNet.uav[19] utilizationEnergyOverdrawMaintenance 0
scalar OsgEarthNet.uav[19] utilizationCountMissions 45
scalar OsgEarthNet.uav[19] utilizationCountManeuversMission 597
scalar OsgEarthNet.uav[19] utilizationCountManeuversMaintenance 90
scalar OsgEarthNet.uav[19] utilizationCountChargeState 45
scalar OsgEarthNet.uav[19] utilizationCountOverdrawnAfterMission 0
scalar OsgEarthNet.uav[19] utilizationCountIdleState 45
scalar OsgEarthNet.uav[19] utilizationFail 0
scalar OsgEarthNet.uav[19] simulationTime 259200
scalar OsgEarthNet.uav[20] utilizationSecMission 24862.93138033
scalar OsgEarthNet.uav[20] utilizationSecMaintenance 19919.53134259
scalar OsgEarthNet.uav[20] utilizationSecCharge 160962.26570296
scalar OsgEarthNet.uav[20] utilizationSecIdle 53455.270574118
scalar OsgEarthNet.uav[20] utilizationEnergyMission 116803.69857788
scalar OsgEarthNet.uav[20] utilizationEnergyMaintenance 92545.75006485
scalar OsgEarthNet.uav[20] utilizationEnergyCharge 211343.51342773
scalar OsgEarthNet.uav[20] utilizationEnergyOverdrawMission 0
scalar OsgEarthNet.uav[20] utilizationEnergyOverdrawMaintenance 0
scalar OsgEarthNet.uav[20] utilizationCountMissions 49
scalar OsgEarthNet.uav[20] utilizationCountManeuversMission 691
scalar OsgEarthNet.uav[20] utilizationCountManeuversMaintenance 98
scalar OsgEarthNet.uav[20] utilizationCountChargeState 49
scalar OsgEarthNet.uav[20] utilizationCountOverdrawnAfterMission 0
scalar OsgEarthNet.uav[20] utilizationCountIdleState 49
scalar OsgEarthNet.uav[20] utilizationFail 0
scalar OsgEarthNet.uav[20] simulationTime 259200
scalar OsgEarthNet.uav[21] utilizationSecMission 27453.591404009
scalar OsgEarthNet.uav[21] utilizationSecMaintenance 23990.848128835
scalar OsgEarthNet.uav[21] utilizationSecCharge 184713.55646716
scalar OsgEarthNet.uav[21] utilizationSecIdle 23042.003
scalar OsgEarthNet.uav[21] utilizationEnergyMission 131445.28504181
scalar OsgEarthNet.uav[21] utilizationEnergyMaintenance 110954.72088242
scalar OsgEarthNet.uav[21] utilizationEnergyCharge 242530.87097168
scalar OsgEarthNet.uav[21] utilizationEnergyOverdrawMission 0
scalar OsgEarthNet.uav[21] utilizationEnergyOverdrawMaintenance 0
scalar OsgEarthNet.uav[21] utilizationCountMissions 56
scalar OsgEarthNet.uav[21] utilizationCountManeuversMission 817
scalar OsgEarthNet.uav[21] utilizationCountManeuversMaintenance 112
scalar OsgEarthNet.uav[21] utilizationCountChargeState 56
scalar OsgEarthNet.uav[21] utilizationCountOverdrawnAfterMission 0
scalar OsgEarthNet.uav[21] utilizationCountIdleState 56
scalar OsgEarthNet.uav[21] utilizationFail 0
scalar OsgEarthNet.uav[21] simulationTime 259200
scalar OsgEarthNet.uav[22] utilizationSecMission 27367.928238899
scalar OsgEarthNet.uav[22] utilizationSecMaintenance 23780.068761101
scalar OsgEarthNet.uav[22] utilizationSecCharge 183560
scalar OsgEarthNet.uav[22] utilizationSecIdle 24492.002
scalar OsgEarthNet.uav[22] utilizationEnergyMission 133506.03514481
scalar OsgEarthNet.uav[22] utilizationEnergyMaintenance 110799.13478816
scalar OsgEarthNet.uav[22] utilizationEnergyCharge 240369.95166016
scalar OsgEarthNet.uav[22] utilizationEnergyOverdrawMission 0
scalar OsgEarthNet.uav[22] utilizationEnergyOverdrawMaintenance 0
scalar OsgEarthNet.uav[22] utilizationCountMissions 56
scalar OsgEarthNet.uav[22] utilizationCountManeuversMission 842
scalar OsgEarthNet.uav[22] utilizationCountManeuversMaintenance 112
scalar OsgEarthNet.uav[22] utilizationCountChargeState 55
scalar OsgEarthNet.uav[22] utilizationCountOverdrawnAfterMission 0
scalar OsgEarthNet.uav[22] utilizationCountIdleState 56
scalar OsgEarthNet.uav[22] utilizationFail 0
scalar OsgEarthNet.uav[22] simulationTime 259200
scalar OsgEarthNet.uav[23] utilizationSecMission 25553.596188773
scalar OsgEarthNet.uav[23] utilizationSecMaintenance 26263.459557929
scalar OsgEarthNet.uav[23] utilizationSecCharge 187300.9432533
scalar OsgEarthNet.uav[23] utilizationSecIdle 20082
scalar OsgEarthNet.uav[23] utilizationEnergyMission 126109.22267914
scalar OsgEarthNet.uav[23] utilizationEnergyMaintenance 121588.88783646
scalar OsgEarthNet.uav[23] utilizationEnergyCharge 245365.56201172
scalar OsgEarthNet.uav[23] utilizationEnergyOverdrawMission 0
scalar OsgEarthNet.uav[23] utilizationEnergyOverdrawMaintenance 0
scalar OsgEarthNet.uav[23] utilizationCountMissions 57
scalar OsgEarthNet.uav[23] utilizationCountManeuversMission 865
scalar OsgEarthNet.uav[23] utilizationCountManeuversMaintenance 113
scalar OsgEarthNet.uav[23] utilizationCountChargeState 57
scalar OsgEarthNet.uav[23] utilizationCountOverdrawnAfterMission 0
scalar OsgEarthNet.uav[23] utilizationCountIdleState 57
scalar OsgEarthNet.uav[23] utilizationFail 0
scalar OsgEarthNet.uav[23] simulationTime 259200
scalar OsgEarthNet.uav[24] utilizationSecMission 24190.004110832
scalar OsgEarthNet.uav[24] utilizationSecMaintenance 24253.817583331
scalar OsgEarthNet.uav[24] utilizationSecCharge 175614.16930584
scalar OsgEarthNet.uav[24] utilizationSecIdle 35142.008
scalar OsgEarthNet.uav[24] utilizationEnergyMission 119324.6468277
scalar OsgEarthNet.uav[24] utilizationEnergyMaintenance 112997.04052734
scalar OsgEarthNet.uav[24] utilizationEnergyCharge 229124.52807617
scalar OsgEarthNet.uav[24] utilizationEnergyOverdrawMission 0
scalar OsgEarthNet.uav[24] utilizationEnergyOverdrawMaintenance 0
scalar OsgEarthNet.uav[24] utilizationCountMissions 54
scalar OsgEarthNet.uav[24] utilizationCountManeuversMission 831
scalar OsgEarthNet.uav[24] utilizationCountManeuversMaintenance 108
scalar OsgEarthNet.uav[24] utilizationCountChargeState 54
scalar OsgEarthNet.uav[24] utilizationCountOverdrawnAfterMission 0
scalar OsgEarthNet.uav[24] utilizationCountIdleState 54
scalar OsgEarthNet.uav[24] utilizationFail 0
scalar OsgEarthNet.uav[24] simulationTime 259200
scalar OsgEarthNet.uav[25] utilizationSecMission 7228.094141963
scalar OsgEarthNet.uav[25] utilizationSecMaintenance 5106.126575027
scalar OsgEarthNet.uav[25] utilizationSecCharge 45720
scalar OsgEarthNet.uav[25] utilizationSecIdle 201145.77828301
scalar OsgEarthNet.uav[25] utilizationEnergyMission 35698.335586548
scalar OsgEarthNet.uav[25] utilizationEnergyMaintenance 23822.312332153
scalar OsgEarthNet.uav[25] utilizationEnergyCharge 59155.981445312
scalar OsgEarthNet.uav[25] utilizationEnergyOverdrawMission 0
scalar OsgEarthNet.uav[25] utilizationEnergyOverdrawMaintenance 0
scalar OsgEarthNet.uav[25] utilizationCountMissions 14
scalar OsgEarthNet.uav[25] utilizationCountManeuversMission 241
scalar OsgEarthNet.uav[25] utilizationCountManeuversMaintenance 28
scalar OsgEarthNet.uav[25] utilizationCountChargeState 14
scalar OsgEarthNet.uav[25] utilizationCountOverdrawnAfterMission 0
scalar OsgEarthNet.uav[25] utilizationCountIdleState 15
scalar OsgEarthNet.uav[25] utilizationFail 0
scalar OsgEarthNet.uav[25] simulationTime 259200
scalar OsgEarthNet.uav[26] utilizationSecMission 300
scalar OsgEarthNet.uav[26] utilizationSecMaintenance 524.03331269068
scalar OsgEarthNet.uav[26] utilizationSecCharge 3110
scalar OsgEarthNet.uav[26] utilizationSecIdle 255265.96568731
scalar OsgEarthNet.uav[26] utilizationEnergyMission 1548.9382591248
scalar OsgEarthNet.uav[26] utilizationEnergyMaintenance 2500.6505241394
scalar OsgEarthNet.uav[26] utilizationEnergyCharge 4050.3349609375
scalar OsgEarthNet.uav[26] utilizationEnergyOverdrawMission 0
scalar OsgEarthNet.uav[26] utilizationEnergyOverdrawMaintenance 0
scalar OsgEarthNet.uav[26] utilizationCountMissions 1
scalar OsgEarthNet.uav[26] utilizationCountManeuversMission 15
scalar OsgEarthNet.uav[26] utilizationCountManeuversMaintenance 2
scalar OsgEarthNet.uav[26] utilizationCountChargeState 1
scalar OsgEarthNet.uav[26] utilizationCountOverdrawnAfterMission 0
scalar OsgEarthNet.uav[26] utilizationCountIdleState 2
scalar OsgEarthNet.uav[26] utilizationFail 0
scalar OsgEarthNet.uav[26] simulationTime 259200
scalar OsgEarthNet.uav[27] utilizationSecMission 25952.971869245
scalar OsgEarthNet.uav[27] utilizationSecMaintenance 24813.517121045
scalar OsgEarthNet.uav[27] utilizationSecCharge 184015.15740245
scalar OsgEarthNet.uav[27] utilizationSecIdle 24418.352607263
scalar OsgEarthNet.uav[27] utilizationEnergyMission 126926.7830925
scalar OsgEarthNet.uav[27] utilizationEnergyMaintenance 115198.80601501
scalar OsgEarthNet.uav[27] utilizationEnergyCharge 242012.92089844
scalar OsgEarthNet.uav[27] utilizationEnergyOverdrawMission 0
scalar OsgEarthNet.uav[27] utilizationEnergyOverdrawMaintenance 267.80850219727
scalar OsgEarthNet.uav[27] utilizationCountMissions 55
scalar OsgEarthNet.uav[27] utilizationCountManeuversMission 771
scalar OsgEarthNet.uav[27] utilizationCountManeuversMaintenance 110
scalar OsgEarthNet.uav[27] utilizationCountChargeState 55
scalar OsgEarthNet.uav[27] utilizationCountOverdrawnAfterMission 1
scalar OsgEarthNet.uav[27] utilizationCountIdleState 55
scalar OsgEarthNet.uav[27] utilizationFail 0
scalar OsgEarthNet.uav[27] simulationTime 259200
scalar OsgEarthNet.uav[28] utilizationSecMission 22325.19497522
scalar OsgEarthNet.uav[28] utilizationSecMaintenance 22685.559250279
scalar OsgEarthNet.uav[28] utilizationSecCharge 163110
scalar OsgEarthNet.uav[28] utilizationSecIdle 51079.244774501
scalar OsgEarthNet.uav[28] utilizationEnergyMission 107735.36080933
scalar OsgEarthNet.uav[28] utilizationEnergyMaintenance 104718.4609108
scalar OsgEarthNet.uav[28] utilizationEnergyCharge 212541.44482422
scalar OsgEarthNet.uav[28] utilizationEnergyOverdrawMission 0
scalar OsgEarthNet.uav[28] utilizationEnergyOverdrawMaintenance 56.51114654541
scalar OsgEarthNet.uav[28] utilizationCountMissions 49
scalar OsgEarthNet.uav[28] utilizationCountManeuversMission 678
scalar OsgEarthNet.uav[28] utilizationCountManeuversMaintenance 98
scalar OsgEarthNet.uav[28] utilizationCountChargeState 49
scalar OsgEarthNet.uav[28] utilizationCountOverdrawnAfterMission 1
scalar OsgEarthNet.uav[28] utilizationCountIdleState 50
scalar OsgEarthNet.uav[28] utilizationFail 0
scalar OsgEarthNet.uav[28] simulationTime 259200
scalar OsgEarthNet.uav[29] utilizationSecMission 25156.164206142
scalar OsgEarthNet.uav[29] utilizationSecMaintenance 25641.829793858
scalar OsgEarthNet.uav[29] utilizationSecCharge 185220
scalar OsgEarthNet.uav[29] utilizationSecIdle 23182.005
scalar OsgEarthNet.uav[29] utilizationEnergyMission 123371.0085144
scalar OsgEarthNet.uav[29] utilizationEnergyMaintenance 119530.17310043
scalar OsgEarthNet.uav[29] utilizationEnergyCharge 241675.36938477
scalar OsgEarthNet.uav[29] utilizationEnergyOverdrawMission 0
scalar OsgEarthNet.uav[29] utilizationEnergyOverdrawMaintenance 0
scalar OsgEarthNet.uav[29] utilizationCountMissions 56
scalar OsgEarthNet.uav[29] utilizationCountManeuversMission 842
scalar OsgEarthNet.uav[29] utilizationCountManeuversMaintenance 113
scalar OsgEarthNet.uav[29] utilizationCountChargeState 56
scalar OsgEarthNet.uav[29] utilizationCountOverdrawnAfterMission 0
scalar OsgEarthNet.uav[29] utilizationCountIdleState 57
scalar OsgEarthNet.uav[29] utilizationFail 0
scalar OsgEarthNet.uav[29] simulationTime 259200
scalar OsgEarthNet.uav[30] utilizationSecMission 1103.7112818738
scalar OsgEarthNet.uav[30] utilizationSecMaintenance 809.9560985676
scalar OsgEarthNet.uav[30] utilizationSecCharge 6900
scalar OsgEarthNet.uav[30] utilizationSecIdle 250386.33161956
scalar OsgEarthNet.uav[30] utilizationEnergyMission 5342.7953948975
scalar OsgEarthNet.uav[30] utilizationEnergyMaintenance 3877.2386207581
scalar OsgEarthNet.uav[30] utilizationEnergyCharge 9220.0419921875
scalar OsgEarthNet.uav[30] utilizationEnergyOverdrawMission 0
scalar OsgEarthNet.uav[30] utilizationEnergyOverdrawMaintenance 0
scalar OsgEarthNet.uav[30] utilizationCountMissions 2
scalar OsgEarthNet.uav[30] utilizationCountManeuversMission 17
scalar OsgEarthNet.uav[30] utilizationCountManeuversMaintenance 4
scalar OsgEarthNet.uav[30] utilizationCountChargeState 2
scalar OsgEarthNet.uav[30] utilizationCountOverdrawnAfterMission 0
scalar OsgEarthNet.uav[30] utilizationCountIdleState 3
scalar OsgEarthNet.uav[30] utilizationFail 0
scalar OsgEarthNet.uav[30] simulationTime 259200
scalar OsgEarthNet.uav[31] utilizationSecMission 21709.089818836
scalar OsgEarthNet.uav[31] utilizationSecMaintenance 22788.82197988
scalar OsgEarthNet.uav[31] utilizationSecCharge 162920
scalar OsgEarthNet.uav[31] utilizationSecIdle 51782.087201284
scalar OsgEarthNet.uav[31] utilizationEnergyMission 107810.5518189
scalar OsgEarthNet.uav[31] utilizationEnergyMaintenance 107561.58213043
scalar OsgEarthNet.uav[31] utilizationEnergyCharge 213004.30908203
scalar OsgEarthNet.uav[31] utilizationEnergyOverdrawMission 0
scalar OsgEarthNet.uav[31] utilizationEnergyOverdrawMaintenance 0
scalar OsgEarthNet.uav[31] utilizationCountMissions 49
scalar OsgEarthNet.uav[31] utilizationCountManeuversMission 804
scalar OsgEarthNet.uav[31] utilizationCountManeuversMaintenance 99
scalar OsgEarthNet.uav[31] utilizationCountChargeState 49
scalar OsgEarthNet.uav[31] utilizationCountOverdrawnAfterMission 0
scalar OsgEarthNet.uav[31] utilizationCountIdleState 50
scalar OsgEarthNet.uav[31] utilizationFail 0
scalar OsgEarthNet.uav[31] simulationTime 259200
scalar OsgEarthNet.uav[32] utilizationSecMission 14634.440714254
scalar OsgEarthNet.uav[32] utilizationSecMaintenance 14184.767288936
scalar OsgEarthNet.uav[32] utilizationSecCharge 101917.32995403
scalar OsgEarthNet.uav[32] utilizationSecIdle 128463.46104278
scalar OsgEarthNet.uav[32] utilizationEnergyMission 68939.824726105
scalar OsgEarthNet.uav[32] utilizationEnergyMaintenance 65625.442798614
scalar OsgEarthNet.uav[32] utilizationEnergyCharge 134441.35375977
scalar OsgEarthNet.uav[32] utilizationEnergyOverdrawMission 0
scalar OsgEarthNet.uav[32] utilizationEnergyOverdrawMaintenance 0
scalar OsgEarthNet.uav[32] utilizationCountMissions 31
scalar OsgEarthNet.uav[32] utilizationCountManeuversMission 424
scalar OsgEarthNet.uav[32] utilizationCountManeuversMaintenance 62
scalar OsgEarthNet.uav[32] utilizationCountChargeState 31
scalar OsgEarthNet.uav[32] utilizationCountOverdrawnAfterMission 0
scalar OsgEarthNet.uav[32] utilizationCountIdleState 31
scalar OsgEarthNet.uav[32] utilizationFail 0
scalar OsgEarthNet.uav[32] simulationTime 259200
scalar OsgEarthNet.uav[33] utilizationSecMission 500
scalar OsgEarthNet.uav[33] utilizationSecMaintenance 363.8841636065
scalar OsgEarthNet.uav[33] utilizationSecCharge 3210
scalar OsgEarthNet.uav[33] utilizationSecIdle 255126.11483639
scalar OsgEarthNet.uav[33] utilizationEnergyMission 2460.0723686218
scalar OsgEarthNet.uav[33] utilizationEnergyMaintenance 1721.711315155
scalar OsgEarthNet.uav[33] utilizationEnergyCharge 4217.52734375
scalar OsgEarthNet.uav[33] utilizationEnergyOverdrawMission 0
scalar OsgEarthNet.uav[33] utilizationEnergyOverdrawMaintenance 0
scalar OsgEarthNet.uav[33] utilizationCountMissions 1
scalar OsgEarthNet.uav[33] utilizationCountManeuversMission 25
scalar OsgEarthNet.uav[33] utilizationCountManeuversMaintenance 2
scalar OsgEarthNet.uav[33] utilizationCountChargeState 1
scalar OsgEarthNet.uav[33] utilizationCountOverdrawnAfterMission 0
scalar OsgEarthNet.uav[33] utilizationCountIdleState 2
scalar OsgEarthNet.uav[33] utilizationFail 0
scalar OsgEarthNet.uav[33] simulationTime 259200
scalar OsgEarthNet.uav[34] utilizationSecMission 27251.73618405
scalar OsgEarthNet.uav[34] utilizationSecMaintenance 22336.25681595
scalar OsgEarthNet.uav[34] utilizationSecCharge 178910
scalar OsgEarthNet.uav[34] utilizationSecIdle 30702.006
scalar OsgEarthNet.uav[34] utilizationEnergyMission 131220.0052681
scalar OsgEarthNet.uav[34] utilizationEnergyMaintenance 103215.29488017
scalar OsgEarthNet.uav[34] utilizationEnergyCharge 233555.93041992
scalar OsgEarthNet.uav[34] utilizationEnergyOverdrawMission 0
scalar OsgEarthNet.uav[34] utilizationEnergyOverdrawMaintenance 0
scalar OsgEarthNet.uav[34] utilizationCountMissions 54
scalar OsgEarthNet.uav[34] utilizationCountManeuversMission 798
scalar OsgEarthNet.uav[34] utilizationCountManeuversMaintenance 109
scalar OsgEarthNet.uav[34] utilizationCountChargeState 54
scalar OsgEarthNet.uav[34] utilizationCountOverdrawnAfterMission 0
scalar OsgEarthNet.uav[34] utilizationCountIdleState 55
scalar OsgEarthNet.uav[34] utilizationFail 0
scalar OsgEarthNet.uav[34] simulationTime 259200
scalar OsgEarthNet.uav[35] utilizationSecMission 25854.353948803
scalar OsgEarthNet.uav[35] utilizationSecMaintenance 23566.425437281
scalar OsgEarthNet.uav[35] utilizationSecCharge 179010
scalar OsgEarthNet.uav[35] utilizationSecIdle 30769.219613916
scalar OsgEarthNet.uav[35] utilizationEnergyMission 125346.22891924
scalar OsgEarthNet.uav[35] utilizationEnergyMaintenance 110403.33153534
scalar OsgEarthNet.uav[35] utilizationEnergyCharge 233298.63745117
scalar OsgEarthNet.uav[35] utilizationEnergyOverdrawMission 0
scalar OsgEarthNet.uav[35] utilizationEnergyOverdrawMaintenance 0
scalar OsgEarthNet.uav[35] utilizationCountMissions 54
scalar OsgEarthNet.uav[35] utilizationCountManeuversMission 751
scalar OsgEarthNet.uav[35] utilizationCountManeuversMaintenance 109
scalar OsgEarthNet.uav[35] utilizationCountChargeState 54
scalar OsgEarthNet.uav[35] utilizationCountOverdrawnAfterMission 0
scalar OsgEarthNet.uav[35] utilizationCountIdleState 55
scalar OsgEarthNet.uav[35] utilizationFail 0
scalar OsgEarthNet.uav[35] simulationTime 259200
scalar OsgEarthNet.uav[36] utilizationSecMission 23328.916467683
scalar OsgEarthNet.uav[36] utilizationSecMaintenance 25410.782477553
scalar OsgEarthNet.uav[36] utilizationSecCharge 177380
scalar OsgEarthNet.uav[36] utilizationSecIdle 33080.300054765
scalar OsgEarthNet.uav[36] utilizationEnergyMission 113915.61685944
scalar OsgEarthNet.uav[36] utilizationEnergyMaintenance 117107.36051941
scalar OsgEarthNet.uav[36] utilizationEnergyCharge 230444.95263672
scalar OsgEarthNet.uav[36] utilizationEnergyOverdrawMission 0
scalar OsgEarthNet.uav[36] utilizationEnergyOverdrawMaintenance 147.17024230957
scalar OsgEarthNet.uav[36] utilizationCountMissions 54
scalar OsgEarthNet.uav[36] utilizationCountManeuversMission 835
scalar OsgEarthNet.uav[36] utilizationCountManeuversMaintenance 108
scalar OsgEarthNet.uav[36] utilizationCountChargeState 54
scalar OsgEarthNet.uav[36] utilizationCountOverdrawnAfterMission 1
scalar OsgEarthNet.uav[36] utilizationCountIdleState 55
scalar OsgEarthNet.uav[36] utilizationFail 0
scalar OsgEarthNet.uav[36] simulationTime 259200
scalar OsgEarthNet.uav[37] utilizationSecMission 12110.048185749
scalar OsgEarthNet.uav[37] utilizationSecMaintenance 11671.215432709
scalar OsgEarthNet.uav[37] utilizationSecCharge 83853.289292851
scalar OsgEarthNet.uav[37] utilizationSecIdle 151565.44608869
scalar OsgEarthNet.uav[37] utilizationEnergyMission 58172.914081573
scalar OsgEarthNet.uav[37] utilizationEnergyMaintenance 54112.733737946
scalar OsgEarthNet.uav[37] utilizationEnergyCharge 110225.44506836
scalar OsgEarthNet.uav[37] utilizationEnergyOverdrawMission 0
scalar OsgEarthNet.uav[37] utilizationEnergyOverdrawMaintenance 0
scalar OsgEarthNet.uav[37] utilizationCountMissions 26
scalar OsgEarthNet.uav[37] utilizationCountManeuversMission 389
scalar OsgEarthNet.uav[37] utilizationCountManeuversMaintenance 52
scalar OsgEarthNet.uav[37] utilizationCountChargeState 26
scalar OsgEarthNet.uav[37] utilizationCountOverdrawnAfterMission 0
scalar OsgEarthNet.uav[37] utilizationCountIdleState 26
scalar OsgEarthNet.uav[37] utilizationFail 0
scalar OsgEarthNet.uav[37] simulationTime 259200
scalar OsgEarthNet.uav[38] utilizationSecMission 10857.492670116
scalar OsgEarthNet.uav[38] utilizationSecMaintenance 9119.797752414
scalar OsgEarthNet.uav[38] utilizationSecCharge 70152.008138031
scalar OsgEarthNet.uav[38] utilizationSecIdle 169070.70043944
scalar OsgEarthNet.uav[38] utilizationEnergyMission 52492.993492126
scalar OsgEarthNet.uav[38] utilizationEnergyMaintenance 42388.6614151
scalar OsgEarthNet.uav[38] utilizationEnergyCharge 91890.275390625
scalar OsgEarthNet.uav[38] utilizationEnergyOverdrawMission 0
scalar OsgEarthNet.uav[38] utilizationEnergyOverdrawMaintenance 0
scalar OsgEarthNet.uav[38] utilizationCountMissions 22
scalar OsgEarthNet.uav[38] utilizationCountManeuversMission 341
scalar OsgEarthNet.uav[38] utilizationCountManeuversMaintenance 44
scalar OsgEarthNet.uav[38] utilizationCountChargeState 22
scalar OsgEarthNet.uav[38] utilizationCountOverdrawnAfterMission 0
scalar OsgEarthNet.uav[38] utilizationCountIdleState 22
scalar OsgEarthNet.uav[38] utilizationFail 0
scalar OsgEarthNet.uav[38] simulationTime 259200
scalar OsgEarthNet.uav[39] utilizationSecMission 21851.486746857
scalar OsgEarthNet.uav[39] utilizationSecMaintenance 17295.861692377
scalar OsgEarthNet.uav[39] utilizationSecCharge 141541.6983051
scalar OsgEarthNet.uav[39] utilizationSecIdle 78510.952255665
scalar OsgEarthNet.uav[39] utilizationEnergyMission 105408.81955719
scalar OsgEarthNet.uav[39] utilizationEnergyMaintenance 80202.62361145
scalar OsgEarthNet.uav[39] utilizationEnergyCharge 185495.61865234
scalar OsgEarthNet.uav[39] utilizationEnergyOverdrawMission 0
scalar OsgEarthNet.uav[39] utilizationEnergyOverdrawMaintenance 0
scalar OsgEarthNet.uav[39] utilizationCountMissions 43
scalar OsgEarthNet.uav[39] utilizationCountManeuversMission 683
scalar OsgEarthNet.uav[39] utilizationCountManeuversMaintenance 86
scalar OsgEarthNet.uav[39] utilizationCountChargeState 43
scalar OsgEarthNet.uav[39] utilizationCountOverdrawnAfterMission 0
scalar OsgEarthNet.uav[39] utilizationCountIdleState 43
scalar OsgEarthNet.uav[39] utilizationFail 0
scalar OsgEarthNet.uav[39] simulationTime 259200
scalar OsgEarthNet.uav[40] utilizationSecMission 25396.791582224
scalar OsgEarthNet.uav[40] utilizationSecMaintenance 23403.921531987
scalar OsgEarthNet.uav[40] utilizationSecCharge 177364.64146387
scalar OsgEarthNet.uav[40] utilizationSecIdle 33034.644421923
scalar OsgEarthNet.uav[40] utilizationEnergyMission 124514.29704285
scalar OsgEarthNet.uav[40] utilizationEnergyMaintenance 110065.60984421
scalar OsgEarthNet.uav[40] utilizationEnergyCharge 233907.55517578
scalar OsgEarthNet.uav[40] utilizationEnergyOverdrawMission 0
scalar OsgEarthNet.uav[40] utilizationEnergyOverdrawMaintenance 0
scalar OsgEarthNet.uav[40] utilizationCountMissions 53
scalar OsgEarthNet.uav[40] utilizationCountManeuversMission 834
scalar OsgEarthNet.uav[40] utilizationCountManeuversMaintenance 106
scalar OsgEarthNet.uav[40] utilizationCountChargeState 53
scalar OsgEarthNet.uav[40] utilizationCountOverdrawnAfterMission 0
scalar OsgEarthNet.uav[40] utilizationCountIdleState 53
scalar OsgEarthNet.uav[40] utilizationFail 0
scalar OsgEarthNet.uav[40] simulationTime 259200
scalar OsgEarthNet.uav[41] utilizationSecMission 14350.81553484
scalar OsgEarthNet.uav[41] utilizationSecMaintenance 15642.406349527
scalar OsgEarthNet.uav[41] utilizationSecCharge 109690
scalar OsgEarthNet.uav[41] utilizationSecIdle 119516.77711563
scalar OsgEarthNet.uav[41] utilizationEnergyMission 71147.437725067
scalar OsgEarthNet.uav[41] utilizationEnergyMaintenance 72362.266387939
scalar OsgEarthNet.uav[41] utilizationEnergyCharge 143135.97119141
scalar OsgEarthNet.uav[41] utilizationEnergyOverdrawMission 0
scalar OsgEarthNet.uav[41] utilizationEnergyOverdrawMaintenance 0
scalar OsgEarthNet.uav[41] utilizationCountMissions 33
scalar OsgEarthNet.uav[41] utilizationCountManeuversMission 491
scalar OsgEarthNet.uav[41] utilizationCountManeuversMaintenance 66
scalar OsgEarthNet.uav[41] utilizationCountChargeState 33
scalar OsgEarthNet.uav[41] utilizationCountOverdrawnAfterMission 0
scalar OsgEarthNet.uav[41] utilizationCountIdleState 34
scalar OsgEarthNet.uav[41] utilizationFail 0
scalar OsgEarthNet.uav[41] simulationTime 259200
scalar OsgEarthNet.uav[42] utilizationSecMission 24018.799874499
scalar OsgEarthNet.uav[42] utilizationSecMaintenance 21488.145701859
scalar OsgEarthNet.uav[42] utilizationSecCharge 164121.60046492
scalar OsgEarthNet.uav[42] utilizationSecIdle 49571.452958717
scalar OsgEarthNet.uav[42] utilizationEnergyMission 116630.48723602
scalar OsgEarthNet.uav[42] utilizationEnergyMaintenance 99970.426147461
scalar OsgEarthNet.uav[42] utilizationEnergyCharge 214701.80566406
scalar OsgEarthNet.uav[42] utilizationEnergyOverdrawMission 0
scalar OsgEarthNet.uav[42] utilizationEnergyOverdrawMaintenance 0
scalar OsgEarthNet.uav[42] utilizationCountMissions 50
scalar OsgEarthNet.uav[42] utilizationCountManeuversMission 769
scalar OsgEarthNet.uav[42] utilizationCountManeuversMaintenance 100
scalar OsgEarthNet.uav[42] utilizationCountChargeState 50
scalar OsgEarthNet.uav[42] utilizationCountOverdrawnAfterMission 0
scalar OsgEarthNet.uav[42] utilizationCountIdleState 49
scalar OsgEarthNet.uav[42] utilizationFail 0
scalar OsgEarthNet.uav[42] simulationTime 259200
scalar OsgEarthNet.uav[43] utilizationSecMission 11627.853108554
scalar OsgEarthNet.uav[43] utilizationSecMaintenance 10545.336246053
scalar OsgEarthNet.uav[43] utilizationSecCharge 79850
scalar OsgEarthNet.uav[43] utilizationSecIdle 157176.80964539
scalar OsgEarthNet.uav[43] utilizationEnergyMission 55795.208328247
scalar OsgEarthNet.uav[43] utilizationEnergyMaintenance 48715.616230011
scalar OsgEarthNet.uav[43] utilizationEnergyCharge 104755.70263672
scalar OsgEarthNet.uav[43] utilizationEnergyOverdrawMission 0
scalar OsgEarthNet.uav[43] utilizationEnergyOverdrawMaintenance 0
scalar OsgEarthNet.uav[43] utilizationCountMissions 24
scalar OsgEarthNet.uav[43] utilizationCountManeuversMission 372
scalar OsgEarthNet.uav[43] utilizationCountManeuversMaintenance 48
scalar OsgEarthNet.uav[43] utilizationCountChargeState 24
scalar OsgEarthNet.uav[43] utilizationCountOverdrawnAfterMission 0
scalar OsgEarthNet.uav[43] utilizationCountIdleState 24
scalar OsgEarthNet.uav[43] utilizationFail 0
scalar OsgEarthNet.uav[43] simulationTime 259200
scalar OsgEarthNet.uav[44] utilizationSecMission 25773.279347167
scalar OsgEarthNet.uav[44] utilizationSecMaintenance 24549.452672866
scalar OsgEarthNet.uav[44] utilizationSecCharge 183919.95189375
scalar OsgEarthNet.uav[44] utilizationSecIdle 24957.315086215
scalar OsgEarthNet.uav[44] utilizationEnergyMission 126575.80170822
scalar OsgEarthNet.uav[44] utilizationEnergyMaintenance 114167.31777954
scalar OsgEarthNet.uav[44] utilizationEnergyCharge 240564.90795898
scalar OsgEarthNet.uav[44] utilizationEnergyOverdrawMission 0
scalar OsgEarthNet.uav[44] utilizationEnergyOverdrawMaintenance 0
scalar OsgEarthNet.uav[44] utilizationCountMissions 56
scalar OsgEarthNet.uav[44] utilizationCountManeuversMission 849
scalar OsgEarthNet.uav[44] utilizationCountManeuversMaintenance 112
scalar OsgEarthNet.uav[44] utilizationCountChargeState 56
scalar OsgEarthNet.uav[44] utilizationCountOverdrawnAfterMission 0
scalar OsgEarthNet.uav[44] utilizationCountIdleState 56
scalar OsgEarthNet.uav[44] utilizationFail 0
scalar OsgEarthNet.uav[44] simulationTime 259200
scalar OsgEarthNet.uav[45] utilizationSecMission 17045.352235792
scalar OsgEarthNet.uav[45] utilizationSecMaintenance 16110.40594175
scalar OsgEarthNet.uav[45] utilizationSecCharge 118902.23982246
scalar OsgEarthNet.uav[45] utilizationSecIdle 107142.001
scalar OsgEarthNet.uav[45] utilizationEnergyMission 84273.402755737
scalar OsgEarthNet.uav[45] utilizationEnergyMaintenance 74825.156909943
scalar OsgEarthNet.uav[45] utilizationEnergyCharge 155145.35583496
scalar OsgEarthNet.uav[45] utilizationEnergyOverdrawMission 0
scalar OsgEarthNet.uav[45] utilizationEnergyOverdrawMaintenance 0
scalar OsgEarthNet.uav[45] utilizationCountMissions 37
scalar OsgEarthNet.uav[45] utilizationCountManeuversMission 601
scalar OsgEarthNet.uav[45] utilizationCountManeuversMaintenance 74
scalar OsgEarthNet.uav[45] utilizationCountChargeState 37
scalar OsgEarthNet.uav[45] utilizationCountOverdrawnAfterMission 0
scalar OsgEarthNet.uav[45] utilizationCountIdleState 36
scalar OsgEarthNet.uav[45] utilizationFail 0
scalar OsgEarthNet.uav[45] simulationTime 259200
scalar OsgEarthNet.uav[46] utilizationSecMission 25311.819539617
scalar OsgEarthNet.uav[46] utilizationSecMaintenance 24456.171460383
scalar OsgEarthNet.uav[46] utilizationSecCharge 179750
scalar OsgEarthNet.uav[46] utilizationSecIdle 29682.008
scalar OsgEarthNet.uav[46] utilizationEnergyMission 122104.02983475
scalar OsgEarthNet.uav[46] utilizationEnergyMaintenance 114101.82484765
scalar OsgEarthNet.uav[46] utilizationEnergyCharge 234790.05151367
scalar OsgEarthNet.uav[46] utilizationEnergyOverdrawMission 0
scalar OsgEarthNet.uav[46] utilizationEnergyOverdrawMaintenance 0
scalar OsgEarthNet.uav[46] utilizationCountMissions 54
scalar OsgEarthNet.uav[46] utilizationCountManeuversMission 797
scalar OsgEarthNet.uav[46] utilizationCountManeuversMaintenance 109
scalar OsgEarthNet.uav[46] utilizationCountChargeState 54
scalar OsgEarthNet.uav[46] utilizationCountOverdrawnAfterMission 0
scalar OsgEarthNet.uav[46] utilizationCountIdleState 55
scalar OsgEarthNet.uav[46] utilizationFail 0
scalar OsgEarthNet.uav[46] simulationTime 259200
scalar OsgEarthNet.uav[47] utilizationSecMission 17172.69736404
scalar OsgEarthNet.uav[47] utilizationSecMaintenance 16892.38372956
scalar OsgEarthNet.uav[47] utilizationSecCharge 121371.15890574
scalar OsgEarthNet.uav[47] utilizationSecIdle 103763.75900066
scalar OsgEarthNet.uav[47] utilizationEnergyMission 81866.182189941
scalar OsgEarthNet.uav[47] utilizationEnergyMaintenance 78775.612743378
scalar OsgEarthNet.uav[47] utilizationEnergyCharge 159444.91552734
scalar OsgEarthNet.uav[47] utilizationEnergyOverdrawMission 0
scalar OsgEarthNet.uav[47] utilizationEnergyOverdrawMaintenance 0
scalar OsgEarthNet.uav[47] utilizationCountMissions 37
scalar OsgEarthNet.uav[47] utilizationCountManeuversMission 549
scalar OsgEarthNet.uav[47] utilizationCountManeuversMaintenance 74
scalar OsgEarthNet.uav[47] utilizationCountChargeState 37
scalar OsgEarthNet.uav[47] utilizationCountOverdrawnAfterMission 0
scalar OsgEarthNet.uav[47] utilizationCountIdleState 36
scalar OsgEarthNet.uav[47] utilizationFail 0
scalar OsgEarthNet.uav[47] simulationTime 259200
scalar OsgEarthNet.uav[48] utilizationSecMission 26307.494342164
scalar OsgEarthNet.uav[48] utilizationSecMaintenance 19975.139310849
scalar OsgEarthNet.uav[48] utilizationSecCharge 167655.36034699
scalar OsgEarthNet.uav[48] utilizationSecIdle 45262.005
scalar OsgEarthNet.uav[48] utilizationEnergyMission 124756.13616943
scalar OsgEarthNet.uav[48] utilizationEnergyMaintenance 92922.035614014
scalar OsgEarthNet.uav[48] utilizationEnergyCharge 219724.69555664
scalar OsgEarthNet.uav[48] utilizationEnergyOverdrawMission 0
scalar OsgEarthNet.uav[48] utilizationEnergyOverdrawMaintenance 0
scalar OsgEarthNet.uav[48] utilizationCountMissions 51
scalar OsgEarthNet.uav[48] utilizationCountManeuversMission 817
scalar OsgEarthNet.uav[48] utilizationCountManeuversMaintenance 102
scalar OsgEarthNet.uav[48] utilizationCountChargeState 51
scalar OsgEarthNet.uav[48] utilizationCountOverdrawnAfterMission 0
scalar OsgEarthNet.uav[48] utilizationCountIdleState 50
scalar OsgEarthNet.uav[48] utilizationFail 0
scalar OsgEarthNet.uav[48] simulationTime 259200
scalar OsgEarthNet.uav[49] utilizationSecMission 25567.959990895
scalar OsgEarthNet.uav[49] utilizationSecMaintenance 25000.901342687
scalar OsgEarthNet.uav[49] utilizationSecCharge 182880
scalar OsgEarthNet.uav[49] utilizationSecIdle 25751.137666418
scalar OsgEarthNet.uav[49] utilizationEnergyMission 124124.34757233
scalar OsgEarthNet.uav[49] utilizationEnergyMaintenance 116046.40556335
scalar OsgEarthNet.uav[49] utilizationEnergyCharge 238980.01879883
scalar OsgEarthNet.uav[49] utilizationEnergyOverdrawMission 0
scalar OsgEarthNet.uav[49] utilizationEnergyOverdrawMaintenance 0
scalar OsgEarthNet.uav[49] utilizationCountMissions 55
scalar OsgEarthNet.uav[49] utilizationCountManeuversMission 723
scalar OsgEarthNet.uav[49] utilizationCountManeuversMaintenance 110
scalar OsgEarthNet.uav[49] utilizationCountChargeState 55
scalar OsgEarthNet.uav[49] utilizationCountOverdrawnAfterMission 0
scalar OsgEarthNet.uav[49] utilizationCountIdleState 56
scalar OsgEarthNet.uav[49] utilizationFail 0
scalar OsgEarthNet.uav[49] simulationTime 259200
scalar OsgEarthNet.uav[50] utilizationSecMission 21286.569509527
scalar OsgEarthNet.uav[50] utilizationSecMaintenance 16403.238273617
scalar OsgEarthNet.uav[50] utilizationSecCharge 135320
scalar OsgEarthNet.uav[50] utilizationSecIdle 86190.191216856
scalar OsgEarthNet.uav[50] utilizationEnergyMission 101890.74822235
scalar OsgEarthNet.uav[50] utilizationEnergyMaintenance 76448.341487885
scalar OsgEarthNet.uav[50] utilizationEnergyCharge 178214.23413086
scalar OsgEarthNet.uav[50] utilizationEnergyOverdrawMission 0
scalar OsgEarthNet.uav[50] utilizationEnergyOverdrawMaintenance 74.000389099121
scalar OsgEarthNet.uav[50] utilizationCountMissions 40
scalar OsgEarthNet.uav[50] utilizationCountManeuversMission 658
scalar OsgEarthNet.uav[50] utilizationCountManeuversMaintenance 80
scalar OsgEarthNet.uav[50] utilizationCountChargeState 40
scalar OsgEarthNet.uav[50] utilizationCountOverdrawnAfterMission 1
scalar OsgEarthNet.uav[50] utilizationCountIdleState 41
scalar OsgEarthNet.uav[50] utilizationFail 0
scalar OsgEarthNet.uav[50] simulationTime 259200
scalar OsgEarthNet.uav[51] utilizationSecMission 22906.014176464
scalar OsgEarthNet.uav[51] utilizationSecMaintenance 21681.975823536
scalar OsgEarthNet.uav[51] utilizationSecCharge 160700
scalar OsgEarthNet.uav[51] utilizationSecIdle 53912.009
scalar OsgEarthNet.uav[51] utilizationEnergyMission 113750.23684692
scalar OsgEarthNet.uav[51] utilizationEnergyMaintenance 99476.580881644
scalar OsgEarthNet.uav[51] utilizationEnergyCharge 209236.53515625
scalar OsgEarthNet.uav[51] utilizationEnergyOverdrawMission 0
scalar OsgEarthNet.uav[51] utilizationEnergyOverdrawMaintenance 21.883140563965
scalar OsgEarthNet.uav[51] utilizationCountMissions 50
scalar OsgEarthNet.uav[51] utilizationCountManeuversMission 815
scalar OsgEarthNet.uav[51] utilizationCountManeuversMaintenance 100
scalar OsgEarthNet.uav[51] utilizationCountChargeState 49
scalar OsgEarthNet.uav[51] utilizationCountOverdrawnAfterMission 1
scalar OsgEarthNet.uav[51] utilizationCountIdleState 49
scalar OsgEarthNet.uav[51] utilizationFail 0
scalar OsgEarthNet.uav[51] simulationTime 259200
scalar OsgEarthNet.uav[52] utilizationSecMission 22334.358776486
scalar OsgEarthNet.uav[52] utilizationSecMaintenance 22516.08300005
scalar OsgEarthNet.uav[52] utilizationSecCharge 160709.72040942
scalar OsgEarthNet.uav[52] utilizationSecIdle 53639.83681404
scalar OsgEarthNet.uav[52] utilizationEnergyMission 107485.7481308
scalar OsgEarthNet.uav[52] utilizationEnergyMaintenance 104258.53369141
scalar OsgEarthNet.uav[52] utilizationEnergyCharge 211250.07470703
scalar OsgEarthNet.uav[52] utilizationEnergyOverdrawMission 0
scalar OsgEarthNet.uav[52] utilizationEnergyOverdrawMaintenance 0
scalar OsgEarthNet.uav[52] utilizationCountMissions 48
scalar OsgEarthNet.uav[52] utilizationCountManeuversMission 604
scalar OsgEarthNet.uav[52] utilizationCountManeuversMaintenance 96
scalar OsgEarthNet.uav[52] utilizationCountChargeState 48
scalar OsgEarthNet.uav[52] utilizationCountOverdrawnAfterMission 0
scalar OsgEarthNet.uav[52] utilizationCountIdleState 48
scalar OsgEarthNet.uav[52] utilizationFail 0
scalar OsgEarthNet.uav[52] simulationTime 259200
scalar OsgEarthNet.uav[53] utilizationSecMission 10551.67428576
scalar OsgEarthNet.uav[53] utilizationSecMaintenance 9594.4448516244
scalar OsgEarthNet.uav[53] utilizationSecCharge 72550
scalar OsgEarthNet.uav[53] utilizationSecIdle 166503.87986262
scalar OsgEarthNet.uav[53] utilizationEnergyMission 50610.683750153
scalar OsgEarthNet.uav[53] utilizationEnergyMaintenance 44388.817028046
scalar OsgEarthNet.uav[53] utilizationEnergyCharge 94829.671630859
scalar OsgEarthNet.uav[53] utilizationEnergyOverdrawMission 0
scalar OsgEarthNet.uav[53] utilizationEnergyOverdrawMaintenance 0
scalar OsgEarthNet.uav[53] utilizationCountMissions 22
scalar OsgEarthNet.uav[53] utilizationCountManeuversMission 291
scalar OsgEarthNet.uav[53] utilizationCountManeuversMaintenance 44
scalar OsgEarthNet.uav[53] utilizationCountChargeState 22
scalar OsgEarthNet.uav[53] utilizationCountOverdrawnAfterMission 0
scalar OsgEarthNet.uav[53] utilizationCountIdleState 23
scalar OsgEarthNet.uav[53] utilizationFail 0
scalar OsgEarthNet.uav[53] simulationTime 259200
scalar OsgEarthNet.uav[54] utilizationSecMission 12204.781362134
scalar OsgEarthNet.uav[54] utilizationSecMaintenance 11613.483615845
scalar OsgEarthNet.uav[54] utilizationSecCharge 86320
scalar OsgEarthNet.uav[54] utilizationSecIdle 149061.73402202
scalar OsgEarthNet.uav[54] utilizationEnergyMission 59315.953289032
scalar OsgEarthNet.uav[54] utilizationEnergyMaintenance 54091.66135025
scalar OsgEarthNet.uav[54] utilizationEnergyCharge 113221.03637695
scalar OsgEarthNet.uav[54] utilizationEnergyOverdrawMission 0
scalar OsgEarthNet.uav[54] utilizationEnergyOverdrawMaintenance 0
scalar OsgEarthNet.uav[54] utilizationCountMissions 26
scalar OsgEarthNet.uav[54] utilizationCountManeuversMission 344
scalar OsgEarthNet.uav[54] utilizationCountManeuversMaintenance 52
scalar OsgEarthNet.uav[54] utilizationCountChargeState 26
scalar OsgEarthNet.uav[54] utilizationCountOverdrawnAfterMission 0
scalar OsgEarthNet.uav[54] utilizationCountIdleState 26
scalar OsgEarthNet.uav[54] utilizationFail 0
scalar OsgEarthNet.uav[54] simulationTime 259200
scalar OsgEarthNet.uav[55] utilizationSecMission 23225.701439967
scalar OsgEarthNet.uav[55] utilizationSecMaintenance 17984.703485185
scalar OsgEarthNet.uav[55] utilizationSecCharge 148830
scalar OsgEarthNet.uav[55] utilizationSecIdle 69159.594074848
scalar OsgEarthNet.uav[55] utilizationEnergyMission 112111.17892075
scalar OsgEarthNet.uav[55] utilizationEnergyMaintenance 83695.22196579
scalar OsgEarthNet.uav[55] utilizationEnergyCharge 194252.06616211
scalar OsgEarthNet.uav[55] utilizationEnergyOverdrawMission 0
scalar OsgEarthNet.uav[55] utilizationEnergyOverdrawMaintenance 0
scalar OsgEarthNet.uav[55] utilizationCountMissions 45
scalar OsgEarthNet.uav[55] utilizationCountManeuversMission 670
scalar OsgEarthNet.uav[55] utilizationCountManeuversMaintenance 90
scalar OsgEarthNet.uav[55] utilizationCountChargeState 45
scalar OsgEarthNet.uav[55] utilizationCountOverdrawnAfterMission 0
scalar OsgEarthNet.uav[55] utilizationCountIdleState 45
scalar OsgEarthNet.uav[55] utilizationFail 0
scalar OsgEarthNet.uav[55] simulationTime 259200
scalar OsgEarthNet.uav[56] utilizationSecMission 12519.590380533
scalar OsgEarthNet.uav[56] utilizationSecMaintenance 13632.384668541
scalar OsgEarthNet.uav[56] utilizationSecCharge 91180.083070599
scalar OsgEarthNet.uav[56] utilizationSecIdle 141867.94088033
scalar OsgEarthNet.uav[56] utilizationEnergyMission 58927.984291077
scalar OsgEarthNet.uav[56] utilizationEnergyMaintenance 62673.66583252
scalar OsgEarthNet.uav[56] utilizationEnergyCharge 120627.90136719
scalar OsgEarthNet.uav[56] utilizationEnergyOverdrawMission 0
scalar OsgEarthNet.uav[56] utilizationEnergyOverdrawMaintenance 0
scalar OsgEarthNet.uav[56] utilizationCountMissions 28
scalar OsgEarthNet.uav[56] utilizationCountManeuversMission 299
scalar OsgEarthNet.uav[56] utilizationCountManeuversMaintenance 56
scalar OsgEarthNet.uav[56] utilizationCountChargeState 28
scalar OsgEarthNet.uav[56] utilizationCountOverdrawnAfterMission 0
scalar OsgEarthNet.uav[56] utilizationCountIdleState 25
scalar OsgEarthNet.uav[56] utilizationFail 0
scalar OsgEarthNet.uav[56] simulationTime 259200
scalar OsgEarthNet.uav[57] utilizationSecMission 15557.905509809
scalar OsgEarthNet.uav[57] utilizationSecMaintenance 15426.908471303
scalar OsgEarthNet.uav[57] utilizationSecCharge 110613.18501889
scalar OsgEarthNet.uav[57] utilizationSecIdle 117602
scalar OsgEarthNet.uav[57] utilizationEnergyMission 75700.114425659
scalar OsgEarthNet.uav[57] utilizationEnergyMaintenance 71186.589466095
scalar OsgEarthNet.uav[57] utilizationEnergyCharge 145930.17871094
scalar OsgEarthNet.uav[57] utilizationEnergyOverdrawMission 0
scalar OsgEarthNet.uav[57] utilizationEnergyOverdrawMaintenance 0
scalar OsgEarthNet.uav[57] utilizationCountMissions 34
scalar OsgEarthNet.uav[57] utilizationCountManeuversMission 526
scalar OsgEarthNet.uav[57] utilizationCountManeuversMaintenance 68
scalar OsgEarthNet.uav[57] utilizationCountChargeState 34
scalar OsgEarthNet.uav[57] utilizationCountOverdrawnAfterMission 0
scalar OsgEarthNet.uav[57] utilizationCountIdleState 30
scalar OsgEarthNet.uav[57] utilizationFail 0
scalar OsgEarthNet.uav[57] simulationTime 259200
scalar OsgEarthNet.uav[58] utilizationSecMission 19691.295466581
scalar OsgEarthNet.uav[58] utilizationSecMaintenance 18593.710865091
scalar OsgEarthNet.uav[58] utilizationSecCharge 138255.36158766
scalar OsgEarthNet.uav[58] utilizationSecIdle 82659.631080665
scalar OsgEarthNet.uav[58] utilizationEnergyMission 96836.6434021
scalar OsgEarthNet.uav[58] utilizationEnergyMaintenance 86032.800964355
scalar OsgEarthNet.uav[58] utilizationEnergyCharge 181720.48535156
scalar OsgEarthNet.uav[58] utilizationEnergyOverdrawMission 0
scalar OsgEarthNet.uav[58] utilizationEnergyOverdrawMaintenance 0
scalar OsgEarthNet.uav[58] utilizationCountMissions 42
scalar OsgEarthNet.uav[58] utilizationCountManeuversMission 599
scalar OsgEarthNet.uav[58] utilizationCountManeuversMaintenance 84
scalar OsgEarthNet.uav[58] utilizationCountChargeState 42
scalar OsgEarthNet.uav[58] utilizationCountOverdrawnAfterMission 0
scalar OsgEarthNet.uav[58] utilizationCountIdleState 39
scalar OsgEarthNet.uav[58] utilizationFail 0
scalar OsgEarthNet.uav[58] simulationTime 259200
scalar OsgEarthNet.uav[59] utilizationSecMission 18848.79623833
scalar OsgEarthNet.uav[59] utilizationSecMaintenance 18007.442672942
scalar OsgEarthNet.uav[59] utilizationSecCharge 131901.76008873
scalar OsgEarthNet.uav[59] utilizationSecIdle 90442
scalar OsgEarthNet.uav[59] utilizationEnergyMission 89634.478302002
scalar OsgEarthNet.uav[59] utilizationEnergyMaintenance 83120.417392731
scalar OsgEarthNet.uav[59] utilizationEnergyCharge 173347.39379883
scalar OsgEarthNet.uav[59] utilizationEnergyOverdrawMission 0
scalar OsgEarthNet.uav[59] utilizationEnergyOverdrawMaintenance 0
scalar OsgEarthNet.uav[59] utilizationCountMissions 40
scalar OsgEarthNet.uav[59] utilizationCountManeuversMission 559
scalar OsgEarthNet.uav[59] utilizationCountManeuversMaintenance 80
scalar OsgEarthNet.uav[59] utilizationCountChargeState 40
scalar OsgEarthNet.uav[59] utilizationCountOverdrawnAfterMission 0
scalar OsgEarthNet.uav[59] utilizationCountIdleState 39
scalar OsgEarthNet.uav[59] utilizationFail 0
scalar OsgEarthNet.uav[59] simulationTime 259200
scalar OsgEarthNet.uav[60] utilizationSecMission 27225.939378145
scalar OsgEarthNet.uav[60] utilizationSecMaintenance 24504.563572561
scalar OsgEarthNet.uav[60] utilizationSecCharge 185297.49204929
scalar OsgEarthNet.uav[60] utilizationSecIdle 22172.004
scalar OsgEarthNet.uav[60] utilizationEnergyMission 132089.18493271
scalar OsgEarthNet.uav[60] utilizationEnergyMaintenance 113240.67699432
scalar OsgEarthNet.uav[60] utilizationEnergyCharge 243601.99584961
scalar OsgEarthNet.uav[60] utilizationEnergyOverdrawMission 0
scalar OsgEarthNet.uav[60] utilizationEnergyOverdrawMaintenance 212.54742431641
scalar OsgEarthNet.uav[60] utilizationCountMissions 56
scalar OsgEarthNet.uav[60] utilizationCountManeuversMission 792
scalar OsgEarthNet.uav[60] utilizationCountManeuversMaintenance 112
scalar OsgEarthNet.uav[60] utilizationCountChargeState 56
scalar OsgEarthNet.uav[60] utilizationCountOverdrawnAfterMission 1
scalar OsgEarthNet.uav[60] utilizationCountIdleState 54
scalar OsgEarthNet.uav[60] utilizationFail 0
scalar OsgEarthNet.uav[60] simulationTime 259200
scalar OsgEarthNet.uav[61] utilizationSecMission 17956.432488775
scalar OsgEarthNet.uav[61] utilizationSecMaintenance 21163.455446786
scalar OsgEarthNet.uav[61] utilizationSecCharge 142768.11106444
scalar OsgEarthNet.uav[61] utilizationSecIdle 77312
scalar OsgEarthNet.uav[61] utilizationEnergyMission 88479.374492645
scalar OsgEarthNet.uav[61] utilizationEnergyMaintenance 98405.246833801
scalar OsgEarthNet.uav[61] utilizationEnergyCharge 188071.36474609
scalar OsgEarthNet.uav[61] utilizationEnergyOverdrawMission 0
scalar OsgEarthNet.uav[61] utilizationEnergyOverdrawMaintenance 0
scalar OsgEarthNet.uav[61] utilizationCountMissions 43
scalar OsgEarthNet.uav[61] utilizationCountManeuversMission 637
scalar OsgEarthNet.uav[61] utilizationCountManeuversMaintenance 85
scalar OsgEarthNet.uav[61] utilizationCountChargeState 43
scalar OsgEarthNet.uav[61] utilizationCountOverdrawnAfterMission 0
scalar OsgEarthNet.uav[61] utilizationCountIdleState 37
scalar OsgEarthNet.uav[61] utilizationFail 0
scalar OsgEarthNet.uav[61] simulationTime 259200
scalar OsgEarthNet.uav[62] utilizationSecMission 22612.887912769
scalar OsgEarthNet.uav[62] utilizationSecMaintenance 18933.406058068
scalar OsgEarthNet.uav[62] utilizationSecCharge 149970
scalar OsgEarthNet.uav[62] utilizationSecIdle 67683.705029163
scalar OsgEarthNet.uav[62] utilizationEnergyMission 107835.95438385
scalar OsgEarthNet.uav[62] utilizationEnergyMaintenance 88019.048099518
scalar OsgEarthNet.uav[62] utilizationEnergyCharge 197377.85742188
scalar OsgEarthNet.uav[62] utilizationEnergyOverdrawMission 0
scalar OsgEarthNet.uav[62] utilizationEnergyOverdrawMaintenance 292.37112426758
scalar OsgEarthNet.uav[62] utilizationCountMissions 45
scalar OsgEarthNet.uav[62] utilizationCountManeuversMission 624
scalar OsgEarthNet.uav[62] utilizationCountManeuversMaintenance 90
scalar OsgEarthNet.uav[62] utilizationCountChargeState 45
scalar OsgEarthNet.uav[62] utilizationCountOverdrawnAfterMission 1
scalar OsgEarthNet.uav[62] utilizationCountIdleState 40
scalar OsgEarthNet.uav[62] utilizationFail 0
scalar OsgEarthNet.uav[62] simulationTime 259200
scalar OsgEarthNet.uav[63] utilizationSecMission 21407.56716677
scalar OsgEarthNet.uav[63] utilizationSecMaintenance 21010.43083323
scalar OsgEarthNet.uav[63] utilizationSecCharge 151540
scalar OsgEarthNet.uav[63] utilizationSecIdle 65242.001
scalar OsgEarthNet.uav[63] utilizationEnergyMission 101713.78458024
scalar OsgEarthNet.uav[63] utilizationEnergyMaintenance 97550.651409149
scalar OsgEarthNet.uav[63] utilizationEnergyCharge 199471.5300293
scalar OsgEarthNet.uav[63] utilizationEnergyOverdrawMission 0
scalar OsgEarthNet.uav[63] utilizationEnergyOverdrawMaintenance 0
scalar OsgEarthNet.uav[63] utilizationCountMissions 46
scalar OsgEarthNet.uav[63] utilizationCountManeuversMission 653
scalar OsgEarthNet.uav[63] utilizationCountManeuversMaintenance 93
scalar OsgEarthNet.uav[63] utilizationCountChargeState 46
scalar OsgEarthNet.uav[63] utilizationCountOverdrawnAfterMission 0
scalar OsgEarthNet.uav[63] utilizationCountIdleState 40
scalar OsgEarthNet.uav[63] utilizationFail 0
scalar OsgEarthNet.uav[63] simulationTime 259200
scalar OsgEarthNet.uav[64] utilizationSecMission 23137.622225712
scalar OsgEarthNet.uav[64] utilizationSecMaintenance 27285.6959664
scalar OsgEarthNet.uav[64] utilizationSecCharge 180960
scalar OsgEarthNet.uav[64] utilizationSecIdle 27816.680807888
scalar OsgEarthNet.uav[64] utilizationEnergyMission 113345.53964615
scalar OsgEarthNet.uav[64] utilizationEnergyMaintenance 125923.65880006
scalar OsgEarthNet.uav[64] utilizationEnergyCharge 239143.95849609
scalar OsgEarthNet.uav[64] utilizationEnergyOverdrawMission 0
scalar OsgEarthNet.uav[64] utilizationEnergyOverdrawMaintenance 0
scalar OsgEarthNet.uav[64] utilizationCountMissions 55
scalar OsgEarthNet.uav[64] utilizationCountManeuversMission 758
scalar OsgEarthNet.uav[64] utilizationCountManeuversMaintenance 111
scalar OsgEarthNet.uav[64] utilizationCountChargeState 55
scalar OsgEarthNet.uav[64] utilizationCountOverdrawnAfterMission 0
scalar OsgEarthNet.uav[64] utilizationCountIdleState 40
scalar OsgEarthNet.uav[64] utilizationFail 0
scalar OsgEarthNet.uav[64] simulationTime 259200
scalar OsgEarthNet.uav[65] utilizationSecMission 25064.400000599
scalar OsgEarthNet.uav[65] utilizationSecMaintenance 22037.602649129
scalar OsgEarthNet.uav[65] utilizationSecCharge 170234.47102124
scalar OsgEarthNet.uav[65] utilizationSecIdle 41863.525329029
scalar OsgEarthNet.uav[65] utilizationEnergyMission 120427.75111771
scalar OsgEarthNet.uav[65] utilizationEnergyMaintenance 102483.37514496
scalar OsgEarthNet.uav[65] utilizationEnergyCharge 222817.08007812
scalar OsgEarthNet.uav[65] utilizationEnergyOverdrawMission 0
[...]
scalar OsgEarthNet.uav[81] utilizationCountManeuversMission 871
scalar OsgEarthNet.uav[81] utilizationCountManeuversMaintenance 118
scalar OsgEarthNet.uav[81] utilizationCountChargeState 59
scalar OsgEarthNet.uav[81] utilizationCountOverdrawnAfterMission 0
scalar OsgEarthNet.uav[81] utilizationCountIdleState 34
scalar OsgEarthNet.uav[81] utilizationFail 0
scalar OsgEarthNet.uav[81] simulationTime 259200
scalar OsgEarthNet.uav[82] utilizationSecMission 27501.472791648
scalar OsgEarthNet.uav[82] utilizationSecMaintenance 28583.070554948
scalar OsgEarthNet.uav[82] utilizationSecCharge 194680
scalar OsgEarthNet.uav[82] utilizationSecIdle 8435.4556534032
scalar OsgEarthNet.uav[82] utilizationEnergyMission 131605.69035131
scalar OsgEarthNet.uav[82] utilizationEnergyMaintenance 132577.00218582
scalar OsgEarthNet.uav[82] utilizationEnergyCharge 262218.71362305
scalar OsgEarthNet.uav[82] utilizationEnergyOverdrawMission 0
scalar OsgEarthNet.uav[82] utilizationEnergyOverdrawMaintenance 0
scalar OsgEarthNet.uav[82] utilizationCountMissions 60
scalar OsgEarthNet.uav[82] utilizationCountManeuversMission 765
scalar OsgEarthNet.uav[82] utilizationCountManeuversMaintenance 121
scalar OsgEarthNet.uav[82] utilizationCountChargeState 60
scalar OsgEarthNet.uav[82] utilizationCountOverdrawnAfterMission 0
scalar OsgEarthNet.uav[82] utilizationCountIdleState 26
scalar OsgEarthNet.uav[82] utilizationFail 0
scalar OsgEarthNet.uav[82] simulationTime 259200
scalar OsgEarthNet.uav[83] utilizationSecMission 27436.877513953
scalar OsgEarthNet.uav[83] utilizationSecMaintenance 28107.76407127
scalar OsgEarthNet.uav[83] utilizationSecCharge 193004.40415911
scalar OsgEarthNet.uav[83] utilizationSecIdle 10650.953255665
scalar OsgEarthNet.uav[83] utilizationEnergyMission 131859.57722092
scalar OsgEarthNet.uav[83] utilizationEnergyMaintenance 130783.36938095
scalar OsgEarthNet.uav[83] utilizationEnergyCharge 261028.77685547
scalar OsgEarthNet.uav[83] utilizationEnergyOverdrawMission 0
scalar OsgEarthNet.uav[83] utilizationEnergyOverdrawMaintenance 113.81802368164
scalar OsgEarthNet.uav[83] utilizationCountMissions 60
scalar OsgEarthNet.uav[83] utilizationCountManeuversMission 798
scalar OsgEarthNet.uav[83] utilizationCountManeuversMaintenance 120
scalar OsgEarthNet.uav[83] utilizationCountChargeState 60
scalar OsgEarthNet.uav[83] utilizationCountOverdrawnAfterMission 1
scalar OsgEarthNet.uav[83] utilizationCountIdleState 25
scalar OsgEarthNet.uav[83] utilizationFail 0
scalar OsgEarthNet.uav[83] simulationTime 259200
scalar OsgEarthNet.uav[84] utilizationSecMission 28500.682140624
scalar OsgEarthNet.uav[84] utilizationSecMaintenance 26963.68616561
scalar OsgEarthNet.uav[84] utilizationSecCharge 194993.62669377
scalar OsgEarthNet.uav[84] utilizationSecIdle 8742.004
scalar OsgEarthNet.uav[84] utilizationEnergyMission 139571.53021622
scalar OsgEarthNet.uav[84] utilizationEnergyMaintenance 125927.67474365
scalar OsgEarthNet.uav[84] utilizationEnergyCharge 261101.03625488
scalar OsgEarthNet.uav[84] utilizationEnergyOverdrawMission 0
scalar OsgEarthNet.uav[84] utilizationEnergyOverdrawMaintenance 0
scalar OsgEarthNet.uav[84] utilizationCountMissions 61
scalar OsgEarthNet.uav[84] utilizationCountManeuversMission 911
scalar OsgEarthNet.uav[84] utilizationCountManeuversMaintenance 122
scalar OsgEarthNet.uav[84] utilizationCountChargeState 61
scalar OsgEarthNet.uav[84] utilizationCountOverdrawnAfterMission 0
scalar OsgEarthNet.uav[84] utilizationCountIdleState 25
scalar OsgEarthNet.uav[84] utilizationFail 0
scalar OsgEarthNet.uav[84] simulationTime 259200
scalar OsgEarthNet.uav[85] utilizationSecMission 27767.133985518
scalar OsgEarthNet.uav[85] utilizationSecMaintenance 28164.559499817
scalar OsgEarthNet.uav[85] utilizationSecCharge 195896.30451466
scalar OsgEarthNet.uav[85] utilizationSecIdle 7372.001
scalar OsgEarthNet.uav[85] utilizationEnergyMission 134009.98875809
scalar OsgEarthNet.uav[85] utilizationEnergyMaintenance 131672.91035461
scalar OsgEarthNet.uav[85] utilizationEnergyCharge 264713.37341309
scalar OsgEarthNet.uav[85] utilizationEnergyOverdrawMission 0
scalar OsgEarthNet.uav[85] utilizationEnergyOverdrawMaintenance 0
scalar OsgEarthNet.uav[85] utilizationCountMissions 61
scalar OsgEarthNet.uav[85] utilizationCountManeuversMission 952
scalar OsgEarthNet.uav[85] utilizationCountManeuversMaintenance 122
scalar OsgEarthNet.uav[85] utilizationCountChargeState 61
scalar OsgEarthNet.uav[85] utilizationCountOverdrawnAfterMission 0
scalar OsgEarthNet.uav[85] utilizationCountIdleState 26
scalar OsgEarthNet.uav[85] utilizationFail 0
scalar OsgEarthNet.uav[85] simulationTime 259200
scalar OsgEarthNet.uav[86] utilizationSecMission 27964.097457688
scalar OsgEarthNet.uav[86] utilizationSecMaintenance 27674.091579726
scalar OsgEarthNet.uav[86] utilizationSecCharge 195129.80696259
scalar OsgEarthNet.uav[86] utilizationSecIdle 8432.003
scalar OsgEarthNet.uav[86] utilizationEnergyMission 135240.87833023
scalar OsgEarthNet.uav[86] utilizationEnergyMaintenance 128418.9641571
scalar OsgEarthNet.uav[86] utilizationEnergyCharge 262137.34765625
scalar OsgEarthNet.uav[86] utilizationEnergyOverdrawMission 0
scalar OsgEarthNet.uav[86] utilizationEnergyOverdrawMaintenance 0
scalar OsgEarthNet.uav[86] utilizationCountMissions 61
scalar OsgEarthNet.uav[86] utilizationCountManeuversMission 863
scalar OsgEarthNet.uav[86] utilizationCountManeuversMaintenance 122
scalar OsgEarthNet.uav[86] utilizationCountChargeState 61
scalar OsgEarthNet.uav[86] utilizationCountOverdrawnAfterMission 0
scalar OsgEarthNet.uav[86] utilizationCountIdleState 28
scalar OsgEarthNet.uav[86] utilizationFail 0
scalar OsgEarthNet.uav[86] simulationTime 259200
scalar OsgEarthNet.uav[87] utilizationSecMission 28237.190162027
scalar OsgEarthNet.uav[87] utilizationSecMaintenance 27590.161476264
scalar OsgEarthNet.uav[87] utilizationSecCharge 196650.64236171
scalar OsgEarthNet.uav[87] utilizationSecIdle 6722.005
scalar OsgEarthNet.uav[87] utilizationEnergyMission 137772.87473297
scalar OsgEarthNet.uav[87] utilizationEnergyMaintenance 127497.46360397
scalar OsgEarthNet.uav[87] utilizationEnergyCharge 265517.24560547
scalar OsgEarthNet.uav[87] utilizationEnergyOverdrawMission 0
scalar OsgEarthNet.uav[87] utilizationEnergyOverdrawMaintenance 0
scalar OsgEarthNet.uav[87] utilizationCountMissions 61
scalar OsgEarthNet.uav[87] utilizationCountManeuversMission 921
scalar OsgEarthNet.uav[87] utilizationCountManeuversMaintenance 122
scalar OsgEarthNet.uav[87] utilizationCountChargeState 61
scalar OsgEarthNet.uav[87] utilizationCountOverdrawnAfterMission 0
scalar OsgEarthNet.uav[87] utilizationCountIdleState 27
scalar OsgEarthNet.uav[87] utilizationFail 0
scalar OsgEarthNet.uav[87] simulationTime 259200
scalar OsgEarthNet.uav[88] utilizationSecMission 26863.238074623
scalar OsgEarthNet.uav[88] utilizationSecMaintenance 29730.735304408
scalar OsgEarthNet.uav[88] utilizationSecCharge 196654.02362097
scalar OsgEarthNet.uav[88] utilizationSecIdle 5952.002
scalar OsgEarthNet.uav[88] utilizationEnergyMission 130740.35655212
scalar OsgEarthNet.uav[88] utilizationEnergyMaintenance 138349.95720291
scalar OsgEarthNet.uav[88] utilizationEnergyCharge 267311.47949219
scalar OsgEarthNet.uav[88] utilizationEnergyOverdrawMission 0
scalar OsgEarthNet.uav[88] utilizationEnergyOverdrawMaintenance 0
scalar OsgEarthNet.uav[88] utilizationCountMissions 62
scalar OsgEarthNet.uav[88] utilizationCountManeuversMission 832
scalar OsgEarthNet.uav[88] utilizationCountManeuversMaintenance 124
scalar OsgEarthNet.uav[88] utilizationCountChargeState 62
scalar OsgEarthNet.uav[88] utilizationCountOverdrawnAfterMission 0
scalar OsgEarthNet.uav[88] utilizationCountIdleState 22
scalar OsgEarthNet.uav[88] utilizationFail 0
scalar OsgEarthNet.uav[88] simulationTime 259200
scalar OsgEarthNet.uav[89] utilizationSecMission 28643.919521231
scalar OsgEarthNet.uav[89] utilizationSecMaintenance 26464.641169537
scalar OsgEarthNet.uav[89] utilizationSecCharge 193380.48705357
scalar OsgEarthNet.uav[89] utilizationSecIdle 10710.951255665
scalar OsgEarthNet.uav[89] utilizationEnergyMission 137991.1480217
scalar OsgEarthNet.uav[89] utilizationEnergyMaintenance 122694.33596039
scalar OsgEarthNet.uav[89] utilizationEnergyCharge 260043.70385742
scalar OsgEarthNet.uav[89] utilizationEnergyOverdrawMission 0
scalar OsgEarthNet.uav[89] utilizationEnergyOverdrawMaintenance 204.53912353516
scalar OsgEarthNet.uav[89] utilizationCountMissions 61
scalar OsgEarthNet.uav[89] utilizationCountManeuversMission 866
scalar OsgEarthNet.uav[89] utilizationCountManeuversMaintenance 122
scalar OsgEarthNet.uav[89] utilizationCountChargeState 61
scalar OsgEarthNet.uav[89] utilizationCountOverdrawnAfterMission 1
scalar OsgEarthNet.uav[89] utilizationCountIdleState 26
scalar OsgEarthNet.uav[89] utilizationFail 0
scalar OsgEarthNet.uav[89] simulationTime 259200
scalar OsgEarthNet.uav[90] utilizationSecMission 28275.96683441
scalar OsgEarthNet.uav[90] utilizationSecMaintenance 27336.765419709
scalar OsgEarthNet.uav[90] utilizationSecCharge 192835.45110399
scalar OsgEarthNet.uav[90] utilizationSecIdle 10751.815641896
scalar OsgEarthNet.uav[90] utilizationEnergyMission 136188.53046417
scalar OsgEarthNet.uav[90] utilizationEnergyMaintenance 126007.24382401
scalar OsgEarthNet.uav[90] utilizationEnergyCharge 261229.40698242
scalar OsgEarthNet.uav[90] utilizationEnergyOverdrawMission 0
scalar OsgEarthNet.uav[90] utilizationEnergyOverdrawMaintenance 0
scalar OsgEarthNet.uav[90] utilizationCountMissions 60
scalar OsgEarthNet.uav[90] utilizationCountManeuversMission 870
scalar OsgEarthNet.uav[90] utilizationCountManeuversMaintenance 120
scalar OsgEarthNet.uav[90] utilizationCountChargeState 60
scalar OsgEarthNet.uav[90] utilizationCountOverdrawnAfterMission 0
scalar OsgEarthNet.uav[90] utilizationCountIdleState 29
scalar OsgEarthNet.uav[90] utilizationFail 0
scalar OsgEarthNet.uav[90] simulationTime 259200
scalar OsgEarthNet.uav[91] utilizationSecMission 30077.458634082
scalar OsgEarthNet.uav[91] utilizationSecMaintenance 25512.435938601
scalar OsgEarthNet.uav[91] utilizationSecCharge 195108.10242732
scalar OsgEarthNet.uav[91] utilizationSecIdle 8502.002
scalar OsgEarthNet.uav[91] utilizationEnergyMission 144840.59176636
scalar OsgEarthNet.uav[91] utilizationEnergyMaintenance 118010.45066833
scalar OsgEarthNet.uav[91] utilizationEnergyCharge 262490.84423828
scalar OsgEarthNet.uav[91] utilizationEnergyOverdrawMission 0
scalar OsgEarthNet.uav[91] utilizationEnergyOverdrawMaintenance 0
scalar OsgEarthNet.uav[91] utilizationCountMissions 61
scalar OsgEarthNet.uav[91] utilizationCountManeuversMission 899
scalar OsgEarthNet.uav[91] utilizationCountManeuversMaintenance 122
scalar OsgEarthNet.uav[91] utilizationCountChargeState 61
scalar OsgEarthNet.uav[91] utilizationCountOverdrawnAfterMission 0
scalar OsgEarthNet.uav[91] utilizationCountIdleState 28
scalar OsgEarthNet.uav[91] utilizationFail 0
scalar OsgEarthNet.uav[91] simulationTime 259200
scalar OsgEarthNet.uav[92] utilizationSecMission 27532.77397677
scalar OsgEarthNet.uav[92] utilizationSecMaintenance 29095.22202323
scalar OsgEarthNet.uav[92] utilizationSecCharge 197250
scalar OsgEarthNet.uav[92] utilizationSecIdle 5322.003
scalar OsgEarthNet.uav[92] utilizationEnergyMission 134662.34056988
scalar OsgEarthNet.uav[92] utilizationEnergyMaintenance 134588.35353088
scalar OsgEarthNet.uav[92] utilizationEnergyCharge 266454.80932617
scalar OsgEarthNet.uav[92] utilizationEnergyOverdrawMission 0
scalar OsgEarthNet.uav[92] utilizationEnergyOverdrawMaintenance 0
scalar OsgEarthNet.uav[92] utilizationCountMissions 62
scalar OsgEarthNet.uav[92] utilizationCountManeuversMission 884
scalar OsgEarthNet.uav[92] utilizationCountManeuversMaintenance 125
scalar OsgEarthNet.uav[92] utilizationCountChargeState 62
scalar OsgEarthNet.uav[92] utilizationCountOverdrawnAfterMission 0
scalar OsgEarthNet.uav[92] utilizationCountIdleState 19
scalar OsgEarthNet.uav[92] utilizationFail 0
scalar OsgEarthNet.uav[92] simulationTime 259200
scalar OsgEarthNet.uav[93] utilizationSecMission 29398.576456979
scalar OsgEarthNet.uav[93] utilizationSecMaintenance 27351.061303073
scalar OsgEarthNet.uav[93] utilizationSecCharge 196527.59527461
scalar OsgEarthNet.uav[93] utilizationSecIdle 5922.765965339
scalar OsgEarthNet.uav[93] utilizationEnergyMission 143139.75608063
scalar OsgEarthNet.uav[93] utilizationEnergyMaintenance 126426.61430359
scalar OsgEarthNet.uav[93] utilizationEnergyCharge 264213.73242188
scalar OsgEarthNet.uav[93] utilizationEnergyOverdrawMission 0
scalar OsgEarthNet.uav[93] utilizationEnergyOverdrawMaintenance 0
scalar OsgEarthNet.uav[93] utilizationCountMissions 62
scalar OsgEarthNet.uav[93] utilizationCountManeuversMission 865
scalar OsgEarthNet.uav[93] utilizationCountManeuversMaintenance 124
scalar OsgEarthNet.uav[93] utilizationCountChargeState 62
scalar OsgEarthNet.uav[93] utilizationCountOverdrawnAfterMission 0
scalar OsgEarthNet.uav[93] utilizationCountIdleState 19
scalar OsgEarthNet.uav[93] utilizationFail 0
scalar OsgEarthNet.uav[93] simulationTime 259200
scalar OsgEarthNet.uav[94] utilizationSecMission 25995.780732552
scalar OsgEarthNet.uav[94] utilizationSecMaintenance 31018.302547259
scalar OsgEarthNet.uav[94] utilizationSecCharge 195420.4666315
scalar OsgEarthNet.uav[94] utilizationSecIdle 6765.449088691
scalar OsgEarthNet.uav[94] utilizationEnergyMission 128199.03604889
scalar OsgEarthNet.uav[94] utilizationEnergyMaintenance 143816.89373016
scalar OsgEarthNet.uav[94] utilizationEnergyCharge 266086.66815186
scalar OsgEarthNet.uav[94] utilizationEnergyOverdrawMission 0
scalar OsgEarthNet.uav[94] utilizationEnergyOverdrawMaintenance 0
scalar OsgEarthNet.uav[94] utilizationCountMissions 63
scalar OsgEarthNet.uav[94] utilizationCountManeuversMission 908
scalar OsgEarthNet.uav[94] utilizationCountManeuversMaintenance 126
scalar OsgEarthNet.uav[94] utilizationCountChargeState 63
scalar OsgEarthNet.uav[94] utilizationCountOverdrawnAfterMission 0
scalar OsgEarthNet.uav[94] utilizationCountIdleState 13
scalar OsgEarthNet.uav[94] utilizationFail 0
scalar OsgEarthNet.uav[94] simulationTime 259200
scalar OsgEarthNet.uav[95] utilizationSecMission 27141.535725462
scalar OsgEarthNet.uav[95] utilizationSecMaintenance 29462.401233599
scalar OsgEarthNet.uav[95] utilizationSecCharge 196884.05804094
scalar OsgEarthNet.uav[95] utilizationSecIdle 5712.004
scalar OsgEarthNet.uav[95] utilizationEnergyMission 131129.49422836
scalar OsgEarthNet.uav[95] utilizationEnergyMaintenance 136182.82927704
scalar OsgEarthNet.uav[95] utilizationEnergyCharge 268398.79663086
scalar OsgEarthNet.uav[95] utilizationEnergyOverdrawMission 0
scalar OsgEarthNet.uav[95] utilizationEnergyOverdrawMaintenance 297.87545776367
scalar OsgEarthNet.uav[95] utilizationCountMissions 62
scalar OsgEarthNet.uav[95] utilizationCountManeuversMission 884
scalar OsgEarthNet.uav[95] utilizationCountManeuversMaintenance 124
scalar OsgEarthNet.uav[95] utilizationCountChargeState 62
scalar OsgEarthNet.uav[95] utilizationCountOverdrawnAfterMission 1
scalar OsgEarthNet.uav[95] utilizationCountIdleState 21
scalar OsgEarthNet.uav[95] utilizationFail 0
scalar OsgEarthNet.uav[95] simulationTime 259200
scalar OsgEarthNet.uav[96] utilizationSecMission 29344.38950249
scalar OsgEarthNet.uav[96] utilizationSecMaintenance 28052.325175659
scalar OsgEarthNet.uav[96] utilizationSecCharge 196171.7706609
scalar OsgEarthNet.uav[96] utilizationSecIdle 5631.5136609497
scalar OsgEarthNet.uav[96] utilizationEnergyMission 140373.31476593
scalar OsgEarthNet.uav[96] utilizationEnergyMaintenance 131069.04102325
scalar OsgEarthNet.uav[96] utilizationEnergyCharge 267417.77032471
scalar OsgEarthNet.uav[96] utilizationEnergyOverdrawMission 0
scalar OsgEarthNet.uav[96] utilizationEnergyOverdrawMaintenance 0
scalar OsgEarthNet.uav[96] utilizationCountMissions 62
scalar OsgEarthNet.uav[96] utilizationCountManeuversMission 782
scalar OsgEarthNet.uav[96] utilizationCountManeuversMaintenance 124
scalar OsgEarthNet.uav[96] utilizationCountChargeState 62
scalar OsgEarthNet.uav[96] utilizationCountOverdrawnAfterMission 0
scalar OsgEarthNet.uav[96] utilizationCountIdleState 20
scalar OsgEarthNet.uav[96] utilizationFail 0
scalar OsgEarthNet.uav[96] simulationTime 259200
scalar OsgEarthNet.uav[97] utilizationSecMission 28443.390497368
scalar OsgEarthNet.uav[97] utilizationSecMaintenance 27570.678867324
scalar OsgEarthNet.uav[97] utilizationSecCharge 194863.91863531
scalar OsgEarthNet.uav[97] utilizationSecIdle 8322.011
scalar OsgEarthNet.uav[97] utilizationEnergyMission 135023.93632507
scalar OsgEarthNet.uav[97] utilizationEnergyMaintenance 128151.28967285
scalar OsgEarthNet.uav[97] utilizationEnergyCharge 263834.11889648
scalar OsgEarthNet.uav[97] utilizationEnergyOverdrawMission 0
scalar OsgEarthNet.uav[97] utilizationEnergyOverdrawMaintenance 100.75590515137
scalar OsgEarthNet.uav[97] utilizationCountMissions 61
scalar OsgEarthNet.uav[97] utilizationCountManeuversMission 922
scalar OsgEarthNet.uav[97] utilizationCountManeuversMaintenance 122
scalar OsgEarthNet.uav[97] utilizationCountChargeState 61
scalar OsgEarthNet.uav[97] utilizationCountOverdrawnAfterMission 1
scalar OsgEarthNet.uav[97] utilizationCountIdleState 17
scalar OsgEarthNet.uav[97] utilizationFail 0
scalar OsgEarthNet.uav[97] simulationTime 259200
scalar OsgEarthNet.uav[98] utilizationSecMission 27466.535633769
scalar OsgEarthNet.uav[98] utilizationSecMaintenance 29236.180374745
scalar OsgEarthNet.uav[98] utilizationSecCharge 196745.27599149
scalar OsgEarthNet.uav[98] utilizationSecIdle 5752.007
scalar OsgEarthNet.uav[98] utilizationEnergyMission 132230.84210968
scalar OsgEarthNet.uav[98] utilizationEnergyMaintenance 135892.84322357
scalar OsgEarthNet.uav[98] utilizationEnergyCharge 266756.62884521
scalar OsgEarthNet.uav[98] utilizationEnergyOverdrawMission 0
scalar OsgEarthNet.uav[98] utilizationEnergyOverdrawMaintenance 0
scalar OsgEarthNet.uav[98] utilizationCountMissions 62
scalar OsgEarthNet.uav[98] utilizationCountManeuversMission 850
scalar OsgEarthNet.uav[98] utilizationCountManeuversMaintenance 124
scalar OsgEarthNet.uav[98] utilizationCountChargeState 62
scalar OsgEarthNet.uav[98] utilizationCountOverdrawnAfterMission 0
scalar OsgEarthNet.uav[98] utilizationCountIdleState 23
scalar OsgEarthNet.uav[98] utilizationFail 0
scalar OsgEarthNet.uav[98] simulationTime 259200
scalar OsgEarthNet.uav[99] utilizationSecMission 27552.55200481
scalar OsgEarthNet.uav[99] utilizationSecMaintenance 30265.411272237
scalar OsgEarthNet.uav[99] utilizationSecCharge 197789.89590981
scalar OsgEarthNet.uav[99] utilizationSecIdle 3592.1398131443
scalar OsgEarthNet.uav[99] utilizationEnergyMission 133143.08164597
scalar OsgEarthNet.uav[99] utilizationEnergyMaintenance 139406.43143082
scalar OsgEarthNet.uav[99] utilizationEnergyCharge 270563.4319458
scalar OsgEarthNet.uav[99] utilizationEnergyOverdrawMission 0
scalar OsgEarthNet.uav[99] utilizationEnergyOverdrawMaintenance 77.69856262207
scalar OsgEarthNet.uav[99] utilizationCountMissions 63
scalar OsgEarthNet.uav[99] utilizationCountManeuversMission 854
scalar OsgEarthNet.uav[99] utilizationCountManeuversMaintenance 126
scalar OsgEarthNet.uav[99] utilizationCountChargeState 63
scalar OsgEarthNet.uav[99] utilizationCountOverdrawnAfterMission 1
scalar OsgEarthNet.uav[99] utilizationCountIdleState 15
scalar OsgEarthNet.uav[99] utilizationFail 0
scalar OsgEarthNet.uav[99] simulationTime 259200
scalar OsgEarthNet.cs[0] usedPower 5505456.7701321
scalar OsgEarthNet.cs[0] chargedPower 5505456.7701321
scalar OsgEarthNet.cs[0] chargedMobileNodes 967
scalar OsgEarthNet.cs[0] reservations 1290
scalar OsgEarthNet.cs[1] usedPower 5788548.0907914
scalar OsgEarthNet.cs[1] chargedPower 5788548.0907914
scalar OsgEarthNet.cs[1] chargedMobileNodes 964
scalar OsgEarthNet.cs[1] reservations 1310
scalar OsgEarthNet.cs[2] usedPower 9777650.109148
scalar OsgEarthNet.cs[2] chargedPower 9777650.109148
scalar OsgEarthNet.cs[2] chargedMobileNodes 1818
scalar OsgEarthNet.cs[2] reservations 2279

