version 2
run Szenario_Hotel_Gabelbach-3-20180707-21:40:14-22688
attr configname Szenario_Hotel_Gabelbach
attr datetime 20180707-21:40:14
attr experiment Szenario_Hotel_Gabelbach
attr inifile omnetpp.ini
attr iterationvars "$quant=0.50, $replM=0"
attr iterationvarsf quant=0.50,replM=0-
attr measurement "$quant=0.50, $replM=0"
attr network OsgEarthNet
attr processid 22688
attr repetition 3
attr replication #3
attr resultdir results
attr runnumber 3
attr seedset 3
itervar quant 0.50
itervar replM 0
param *.osgEarthScene.scene "\"Szenario_Hotel_Gabelbach.earth\""
param *.playgroundLatitude 50.6830269
param *.playgroundLongitude 10.8538055
param *.playgroundWidth 3500m
param *.playgroundHeight 3500m
param *.numCSs 3
param *.numUAVs 100
param *.cs[0].posX 3537m
param *.cs[0].posY 965m
param *.cs[0].posZ 538m
param *.cs[1].posX 312m
param *.cs[1].posY 1262m
param *.cs[1].posZ 539m
param *.cs[2].posX 2185m
param *.cs[2].posY 3026m
param *.cs[2].posZ 777m
param *.uav[*].predictionQuantile 0.50
param *.uav[*].replacementMethod 0
param *.*.timeStep 10s
param *.uav[*].commandPreviewCommandCount 20
param *.missionControl.missionFiles "\"missions\\\\Szenario_WB_Hotel_Gabelbach_Mission_Hotel.waypoints,missions\\\\Szenario_WB_Hotel_Gabelbach_Mission_Kickelhahn.waypoints,missions\\\\Szenario_WB_Hotel_Gabelbach_Mission_Ilmenau_Sportplatz.waypoints,missions\\\\Szenario_WB_Hotel_Gabelbach_Mission_Manebach_Mitte.waypoints,missions\\\\Szenario_WB_Hotel_Gabelbach_Mission_Manebach_Sued.waypoints,missions\\\\Szenario_WB_Hotel_Gabelbach_Hover_HoheSchlaufe.waypoints,missions\\\\Szenario_WB_Hotel_Gabelbach_Hover_Kickelhahn.waypoints,missions\\\\Szenario_WB_Hotel_Gabelbach_Hover_Gabelbachskopf.waypoints,missions\\\\Szenario_WB_Hotel_Gabelbach_Hover_Dachskopf.waypoints\""
param *.uav[0].startX 3537m
param *.uav[0].startY 965m
param *.uav[0].startZ 539m
param *.uav[1].startX 312m
param *.uav[1].startY 1262m
param *.uav[1].startZ 540m
param *.uav[2].startX 2185m
param *.uav[2].startY 3026m
param *.uav[2].startZ 778m
param *.uav[3].startX 3537m
param *.uav[3].startY 965m
param *.uav[3].startZ 539m
param *.uav[4].startX 312m
param *.uav[4].startY 1262m
param *.uav[4].startZ 540m
param *.uav[5].startX 2185m
param *.uav[5].startY 3026m
param *.uav[5].startZ 778m
param *.uav[6].startX 3537m
param *.uav[6].startY 965m
param *.uav[6].startZ 539m
param *.uav[7].startX 312m
param *.uav[7].startY 1262m
param *.uav[7].startZ 540m
param *.uav[8].startX 2185m
param *.uav[8].startY 3026m
param *.uav[8].startZ 778m
param *.uav[9].startX 3537m
param *.uav[9].startY 965m
param *.uav[9].startZ 539m
param *.uav[10].startX 3537m
param *.uav[10].startY 965m
param *.uav[10].startZ 539m
param *.uav[11].startX 312m
param *.uav[11].startY 1262m
param *.uav[11].startZ 540m
param *.uav[12].startX 2185m
param *.uav[12].startY 3026m
param *.uav[12].startZ 778m
param *.uav[13].startX 3537m
param *.uav[13].startY 965m
param *.uav[13].startZ 539m
param *.uav[14].startX 312m
param *.uav[14].startY 1262m
param *.uav[14].startZ 540m
param *.uav[15].startX 2185m
param *.uav[15].startY 3026m
param *.uav[15].startZ 778m
param *.uav[16].startX 3537m
param *.uav[16].startY 965m
param *.uav[16].startZ 539m
param *.uav[17].startX 312m
param *.uav[17].startY 1262m
param *.uav[17].startZ 540m
param *.uav[18].startX 2185m
param *.uav[18].startY 3026m
param *.uav[18].startZ 778m
param *.uav[19].startX 3537m
param *.uav[19].startY 965m
param *.uav[19].startZ 539m
param *.uav[20].startX 3537m
param *.uav[20].startY 965m
param *.uav[20].startZ 539m
param *.uav[21].startX 312m
param *.uav[21].startY 1262m
param *.uav[21].startZ 540m
param *.uav[22].startX 2185m
param *.uav[22].startY 3026m
param *.uav[22].startZ 778m
param *.uav[23].startX 3537m
param *.uav[23].startY 965m
param *.uav[23].startZ 539m
param *.uav[24].startX 312m
param *.uav[24].startY 1262m
param *.uav[24].startZ 540m
param *.uav[25].startX 2185m
param *.uav[25].startY 3026m
param *.uav[25].startZ 778m
param *.uav[26].startX 3537m
param *.uav[26].startY 965m
param *.uav[26].startZ 539m
param *.uav[27].startX 312m
param *.uav[27].startY 1262m
param *.uav[27].startZ 540m
param *.uav[28].startX 2185m
param *.uav[28].startY 3026m
param *.uav[28].startZ 778m
param *.uav[29].startX 3537m
param *.uav[29].startY 965m
param *.uav[29].startZ 539m
param *.uav[30].startX 3537m
param *.uav[30].startY 965m
param *.uav[30].startZ 539m
param *.uav[31].startX 312m
param *.uav[31].startY 1262m
param *.uav[31].startZ 540m
param *.uav[32].startX 2185m
param *.uav[32].startY 3026m
param *.uav[32].startZ 778m
param *.uav[33].startX 3537m
param *.uav[33].startY 965m
param *.uav[33].startZ 539m
param *.uav[34].startX 312m
param *.uav[34].startY 1262m
param *.uav[34].startZ 540m
param *.uav[35].startX 2185m
param *.uav[35].startY 3026m
param *.uav[35].startZ 778m
param *.uav[36].startX 3537m
param *.uav[36].startY 965m
param *.uav[36].startZ 539m
param *.uav[37].startX 312m
param *.uav[37].startY 1262m
param *.uav[37].startZ 540m
param *.uav[38].startX 2185m
param *.uav[38].startY 3026m
param *.uav[38].startZ 778m
param *.uav[39].startX 3537m
param *.uav[39].startY 965m
param *.uav[39].startZ 539m
param *.uav[40].startX 3537m
param *.uav[40].startY 965m
param *.uav[40].startZ 539m
param *.uav[41].startX 312m
param *.uav[41].startY 1262m
param *.uav[41].startZ 540m
param *.uav[42].startX 2185m
param *.uav[42].startY 3026m
param *.uav[42].startZ 778m
param *.uav[43].startX 3537m
param *.uav[43].startY 965m
param *.uav[43].startZ 539m
param *.uav[44].startX 312m
param *.uav[44].startY 1262m
param *.uav[44].startZ 540m
param *.uav[45].startX 2185m
param *.uav[45].startY 3026m
param *.uav[45].startZ 778m
param *.uav[46].startX 3537m
param *.uav[46].startY 965m
param *.uav[46].startZ 539m
param *.uav[47].startX 312m
param *.uav[47].startY 1262m
param *.uav[47].startZ 540m
param *.uav[48].startX 2185m
param *.uav[48].startY 3026m
param *.uav[48].startZ 778m
param *.uav[49].startX 3537m
param *.uav[49].startY 965m
param *.uav[49].startZ 539m
param *.uav[50].startX 3537m
param *.uav[50].startY 965m
param *.uav[50].startZ 539m
param *.uav[51].startX 312m
param *.uav[51].startY 1262m
param *.uav[51].startZ 540m
param *.uav[52].startX 2185m
param *.uav[52].startY 3026m
param *.uav[52].startZ 778m
param *.uav[53].startX 3537m
param *.uav[53].startY 965m
param *.uav[53].startZ 539m
param *.uav[54].startX 312m
param *.uav[54].startY 1262m
param *.uav[54].startZ 540m
param *.uav[55].startX 2185m
param *.uav[55].startY 3026m
param *.uav[55].startZ 778m
param *.uav[56].startX 3537m
param *.uav[56].startY 965m
param *.uav[56].startZ 539m
param *.uav[57].startX 312m
param *.uav[57].startY 1262m
param *.uav[57].startZ 540m
param *.uav[58].startX 2185m
param *.uav[58].startY 3026m
param *.uav[58].startZ 778m
param *.uav[59].startX 3537m
param *.uav[59].startY 965m
param *.uav[59].startZ 539m
param *.uav[60].startX 3537m
param *.uav[60].startY 965m
param *.uav[60].startZ 539m
param *.uav[61].startX 312m
param *.uav[61].startY 1262m
param *.uav[61].startZ 540m
param *.uav[62].startX 2185m
param *.uav[62].startY 3026m
param *.uav[62].startZ 778m
param *.uav[63].startX 3537m
param *.uav[63].startY 965m
param *.uav[63].startZ 539m
param *.uav[64].startX 312m
param *.uav[64].startY 1262m
param *.uav[64].startZ 540m
param *.uav[65].startX 2185m
param *.uav[65].startY 3026m
param *.uav[65].startZ 778m
param *.uav[66].startX 3537m
param *.uav[66].startY 965m
param *.uav[66].startZ 539m
param *.uav[67].startX 312m
param *.uav[67].startY 1262m
param *.uav[67].startZ 540m
param *.uav[68].startX 2185m
param *.uav[68].startY 3026m
param *.uav[68].startZ 778m
param *.uav[69].startX 3537m
param *.uav[69].startY 965m
param *.uav[69].startZ 539m
param *.uav[70].startX 3537m
param *.uav[70].startY 965m
param *.uav[70].startZ 539m
param *.uav[71].startX 312m
param *.uav[71].startY 1262m
param *.uav[71].startZ 540m
param *.uav[72].startX 2185m
param *.uav[72].startY 3026m
param *.uav[72].startZ 778m
param *.uav[73].startX 3537m
param *.uav[73].startY 965m
param *.uav[73].startZ 539m
param *.uav[74].startX 312m
param *.uav[74].startY 1262m
param *.uav[74].startZ 540m
param *.uav[75].startX 2185m
param *.uav[75].startY 3026m
param *.uav[75].startZ 778m
param *.uav[76].startX 3537m
param *.uav[76].startY 965m
param *.uav[76].startZ 539m
param *.uav[77].startX 312m
param *.uav[77].startY 1262m
param *.uav[77].startZ 540m
param *.uav[78].startX 2185m
param *.uav[78].startY 3026m
param *.uav[78].startZ 778m
param *.uav[79].startX 3537m
param *.uav[79].startY 965m
param *.uav[79].startZ 539m
param *.uav[80].startX 3537m
param *.uav[80].startY 965m
param *.uav[80].startZ 539m
param *.uav[81].startX 312m
param *.uav[81].startY 1262m
param *.uav[81].startZ 540m
param *.uav[82].startX 2185m
param *.uav[82].startY 3026m
param *.uav[82].startZ 778m
param *.uav[83].startX 3537m
param *.uav[83].startY 965m
param *.uav[83].startZ 539m
param *.uav[84].startX 312m
param *.uav[84].startY 1262m
param *.uav[84].startZ 540m
param *.uav[85].startX 2185m
param *.uav[85].startY 3026m
param *.uav[85].startZ 778m
param *.uav[86].startX 3537m
param *.uav[86].startY 965m
param *.uav[86].startZ 539m
param *.uav[87].startX 312m
param *.uav[87].startY 1262m
param *.uav[87].startZ 540m
param *.uav[88].startX 2185m
param *.uav[88].startY 3026m
param *.uav[88].startZ 778m
param *.uav[89].startX 3537m
param *.uav[89].startY 965m
param *.uav[89].startZ 539m
param *.uav[90].startX 3537m
param *.uav[90].startY 965m
param *.uav[90].startZ 539m
param *.uav[91].startX 312m
param *.uav[91].startY 1262m
param *.uav[91].startZ 540m
param *.uav[92].startX 2185m
param *.uav[92].startY 3026m
param *.uav[92].startZ 778m
param *.uav[93].startX 3537m
param *.uav[93].startY 965m
param *.uav[93].startZ 539m
param *.uav[94].startX 312m
param *.uav[94].startY 1262m
param *.uav[94].startZ 540m
param *.uav[95].startX 2185m
param *.uav[95].startY 3026m
param *.uav[95].startZ 778m
param *.uav[96].startX 3537m
param *.uav[96].startY 965m
param *.uav[96].startZ 539m
param *.uav[97].startX 312m
param *.uav[97].startY 1262m
param *.uav[97].startZ 540m
param *.uav[98].startX 2185m
param *.uav[98].startY 3026m
param *.uav[98].startZ 778m
param *.uav[99].startX 3537m
param *.uav[99].startY 965m
param *.uav[99].startZ 539m
param *.osgEarthScene.scene "\"boston.earth\""
param *.playgroundLatitude 42.3558
param *.playgroundLongitude -71.0677
param *.playgroundWidth 400m
param *.playgroundHeight 200m
param *.channelController.connectionColor "\"#0000FF40\""
param *.channelController.showConnections false
param *.uav[*].modelURL "\"quadrocopter.small.obj.15.scale.0,0,90.rot\""
param *.uav[*].labelColor "\"#FF7C00CC\""
param *.uav[*].label2Color "\"#FF7C00EE\""
param *.uav[*].batteryCapacity 5200mAh
param *.uav[*].batteryRemaining uav[index].batteryCapacity
param *.uav[*].predictionQuantile 0.95
param *.uav[*].replacementMethod 2
param *.uav[*].weightedSumWeight 0.5
param *.cs[*].modelURL "\"chargingstation_v1.osgt.1.scale.0,0,0.rot.0,0,-15e-1.trans\""
param *.cs[*].spotsWaiting 999
param *.cs[*].spotsCharging 999
param *.cs[*].chargeEffectivenessPercentage 100
param *.cs[*].nonLinearPhaseStartPercentage 85
param *.cs[*].chargeCurrent 6.0A
param *.cs[*].prioritizeFastCharge true
param *.missionControl.replacementSearchMethod 0
param *.*.timeStep 9s

scalar OsgEarthNet.uav[0] utilizationSecMission 0
scalar OsgEarthNet.uav[0] utilizationSecMaintenance 0
scalar OsgEarthNet.uav[0] utilizationSecCharge 0
scalar OsgEarthNet.uav[0] utilizationSecIdle 3516.8267328573
scalar OsgEarthNet.uav[0] utilizationEnergyMission 0
scalar OsgEarthNet.uav[0] utilizationEnergyMaintenance 0
scalar OsgEarthNet.uav[0] utilizationEnergyCharge 0
scalar OsgEarthNet.uav[0] utilizationEnergyOverdrawMission 0
scalar OsgEarthNet.uav[0] utilizationEnergyOverdrawMaintenance 0
scalar OsgEarthNet.uav[0] utilizationCountMissions 0
scalar OsgEarthNet.uav[0] utilizationCountManeuversMission 0
scalar OsgEarthNet.uav[0] utilizationCountManeuversMaintenance 0
scalar OsgEarthNet.uav[0] utilizationCountChargeState 0
scalar OsgEarthNet.uav[0] utilizationCountOverdrawnAfterMission 0
scalar OsgEarthNet.uav[0] utilizationCountIdleState 1
scalar OsgEarthNet.uav[0] utilizationFail 0
scalar OsgEarthNet.uav[0] simulationTime 3516.8277328573
scalar OsgEarthNet.uav[1] utilizationSecMission 0
scalar OsgEarthNet.uav[1] utilizationSecMaintenance 0
scalar OsgEarthNet.uav[1] utilizationSecCharge 0
scalar OsgEarthNet.uav[1] utilizationSecIdle 3516.8267328573
scalar OsgEarthNet.uav[1] utilizationEnergyMission 0
scalar OsgEarthNet.uav[1] utilizationEnergyMaintenance 0
scalar OsgEarthNet.uav[1] utilizationEnergyCharge 0
scalar OsgEarthNet.uav[1] utilizationEnergyOverdrawMission 0
scalar OsgEarthNet.uav[1] utilizationEnergyOverdrawMaintenance 0
scalar OsgEarthNet.uav[1] utilizationCountMissions 0
scalar OsgEarthNet.uav[1] utilizationCountManeuversMission 0
scalar OsgEarthNet.uav[1] utilizationCountManeuversMaintenance 0
scalar OsgEarthNet.uav[1] utilizationCountChargeState 0
scalar OsgEarthNet.uav[1] utilizationCountOverdrawnAfterMission 0
scalar OsgEarthNet.uav[1] utilizationCountIdleState 1
scalar OsgEarthNet.uav[1] utilizationFail 0
scalar OsgEarthNet.uav[1] simulationTime 3516.8277328573
scalar OsgEarthNet.uav[2] utilizationSecMission 760
scalar OsgEarthNet.uav[2] utilizationSecMaintenance 282.82841927123
scalar OsgEarthNet.uav[2] utilizationSecCharge 2471.998313586
scalar OsgEarthNet.uav[2] utilizationSecIdle 2
scalar OsgEarthNet.uav[2] utilizationEnergyMission 3618.6940078735
scalar OsgEarthNet.uav[2] utilizationEnergyMaintenance 1318.3959693909
scalar OsgEarthNet.uav[2] utilizationEnergyCharge 4285.3540039062
scalar OsgEarthNet.uav[2] utilizationEnergyOverdrawMission 0
scalar OsgEarthNet.uav[2] utilizationEnergyOverdrawMaintenance 60.567771911621
scalar OsgEarthNet.uav[2] utilizationCountMissions 1
scalar OsgEarthNet.uav[2] utilizationCountManeuversMission 38
scalar OsgEarthNet.uav[2] utilizationCountManeuversMaintenance 2
scalar OsgEarthNet.uav[2] utilizationCountChargeState 1
scalar OsgEarthNet.uav[2] utilizationCountOverdrawnAfterMission 1
scalar OsgEarthNet.uav[2] utilizationCountIdleState 1
scalar OsgEarthNet.uav[2] utilizationFail 0
scalar OsgEarthNet.uav[2] simulationTime 3516.8277328573
scalar OsgEarthNet.uav[3] utilizationSecMission 0
scalar OsgEarthNet.uav[3] utilizationSecMaintenance 0
scalar OsgEarthNet.uav[3] utilizationSecCharge 0
scalar OsgEarthNet.uav[3] utilizationSecIdle 3516.8267328573
scalar OsgEarthNet.uav[3] utilizationEnergyMission 0
scalar OsgEarthNet.uav[3] utilizationEnergyMaintenance 0
scalar OsgEarthNet.uav[3] utilizationEnergyCharge 0
scalar OsgEarthNet.uav[3] utilizationEnergyOverdrawMission 0
scalar OsgEarthNet.uav[3] utilizationEnergyOverdrawMaintenance 0
scalar OsgEarthNet.uav[3] utilizationCountMissions 0
scalar OsgEarthNet.uav[3] utilizationCountManeuversMission 0
scalar OsgEarthNet.uav[3] utilizationCountManeuversMaintenance 0
scalar OsgEarthNet.uav[3] utilizationCountChargeState 0
scalar OsgEarthNet.uav[3] utilizationCountOverdrawnAfterMission 0
scalar OsgEarthNet.uav[3] utilizationCountIdleState 1
scalar OsgEarthNet.uav[3] utilizationFail 0
scalar OsgEarthNet.uav[3] simulationTime 3516.8277328573
scalar OsgEarthNet.uav[4] utilizationSecMission 680
scalar OsgEarthNet.uav[4] utilizationSecMaintenance 395.21104267299
scalar OsgEarthNet.uav[4] utilizationSecCharge 1719.6146901843
scalar OsgEarthNet.uav[4] utilizationSecIdle 722.001
scalar OsgEarthNet.uav[4] utilizationEnergyMission 3434.2680244446
scalar OsgEarthNet.uav[4] utilizationEnergyMaintenance 1857.5557365417
scalar OsgEarthNet.uav[4] utilizationEnergyCharge 3005.5346679688
scalar OsgEarthNet.uav[4] utilizationEnergyOverdrawMission 0
scalar OsgEarthNet.uav[4] utilizationEnergyOverdrawMaintenance 0
scalar OsgEarthNet.uav[4] utilizationCountMissions 1
scalar OsgEarthNet.uav[4] utilizationCountManeuversMission 34
scalar OsgEarthNet.uav[4] utilizationCountManeuversMaintenance 2
scalar OsgEarthNet.uav[4] utilizationCountChargeState 1
scalar OsgEarthNet.uav[4] utilizationCountOverdrawnAfterMission 0
scalar OsgEarthNet.uav[4] utilizationCountIdleState 1
scalar OsgEarthNet.uav[4] utilizationFail 0
scalar OsgEarthNet.uav[4] simulationTime 3516.8277328573
scalar OsgEarthNet.uav[5] utilizationSecMission 0
scalar OsgEarthNet.uav[5] utilizationSecMaintenance 0
scalar OsgEarthNet.uav[5] utilizationSecCharge 0
scalar OsgEarthNet.uav[5] utilizationSecIdle 3516.8267328573
scalar OsgEarthNet.uav[5] utilizationEnergyMission 0
scalar OsgEarthNet.uav[5] utilizationEnergyMaintenance 0
scalar OsgEarthNet.uav[5] utilizationEnergyCharge 0
scalar OsgEarthNet.uav[5] utilizationEnergyOverdrawMission 0
scalar OsgEarthNet.uav[5] utilizationEnergyOverdrawMaintenance 0
scalar OsgEarthNet.uav[5] utilizationCountMissions 0
scalar OsgEarthNet.uav[5] utilizationCountManeuversMission 0
scalar OsgEarthNet.uav[5] utilizationCountManeuversMaintenance 0
scalar OsgEarthNet.uav[5] utilizationCountChargeState 0
scalar OsgEarthNet.uav[5] utilizationCountOverdrawnAfterMission 0
scalar OsgEarthNet.uav[5] utilizationCountIdleState 1
scalar OsgEarthNet.uav[5] utilizationFail 0
scalar OsgEarthNet.uav[5] simulationTime 3516.8277328573
scalar OsgEarthNet.uav[6] utilizationSecMission 0
scalar OsgEarthNet.uav[6] utilizationSecMaintenance 0
scalar OsgEarthNet.uav[6] utilizationSecCharge 0
scalar OsgEarthNet.uav[6] utilizationSecIdle 3516.8267328573
scalar OsgEarthNet.uav[6] utilizationEnergyMission 0
scalar OsgEarthNet.uav[6] utilizationEnergyMaintenance 0
scalar OsgEarthNet.uav[6] utilizationEnergyCharge 0
scalar OsgEarthNet.uav[6] utilizationEnergyOverdrawMission 0
scalar OsgEarthNet.uav[6] utilizationEnergyOverdrawMaintenance 0
scalar OsgEarthNet.uav[6] utilizationCountMissions 0
scalar OsgEarthNet.uav[6] utilizationCountManeuversMission 0
scalar OsgEarthNet.uav[6] utilizationCountManeuversMaintenance 0
scalar OsgEarthNet.uav[6] utilizationCountChargeState 0
scalar OsgEarthNet.uav[6] utilizationCountOverdrawnAfterMission 0
scalar OsgEarthNet.uav[6] utilizationCountIdleState 1
scalar OsgEarthNet.uav[6] utilizationFail 0
scalar OsgEarthNet.uav[6] simulationTime 3516.8277328573
scalar OsgEarthNet.uav[7] utilizationSecMission 0
scalar OsgEarthNet.uav[7] utilizationSecMaintenance 0
scalar OsgEarthNet.uav[7] utilizationSecCharge 0
scalar OsgEarthNet.uav[7] utilizationSecIdle 3516.8267328573
scalar OsgEarthNet.uav[7] utilizationEnergyMission 0
scalar OsgEarthNet.uav[7] utilizationEnergyMaintenance 0
scalar OsgEarthNet.uav[7] utilizationEnergyCharge 0
scalar OsgEarthNet.uav[7] utilizationEnergyOverdrawMission 0
scalar OsgEarthNet.uav[7] utilizationEnergyOverdrawMaintenance 0
scalar OsgEarthNet.uav[7] utilizationCountMissions 0
scalar OsgEarthNet.uav[7] utilizationCountManeuversMission 0
scalar OsgEarthNet.uav[7] utilizationCountManeuversMaintenance 0
scalar OsgEarthNet.uav[7] utilizationCountChargeState 0
scalar OsgEarthNet.uav[7] utilizationCountOverdrawnAfterMission 0
scalar OsgEarthNet.uav[7] utilizationCountIdleState 1
scalar OsgEarthNet.uav[7] utilizationFail 0
scalar OsgEarthNet.uav[7] simulationTime 3516.8277328573
scalar OsgEarthNet.uav[8] utilizationSecMission 0
scalar OsgEarthNet.uav[8] utilizationSecMaintenance 0
scalar OsgEarthNet.uav[8] utilizationSecCharge 0
scalar OsgEarthNet.uav[8] utilizationSecIdle 3516.8267328573
scalar OsgEarthNet.uav[8] utilizationEnergyMission 0
scalar OsgEarthNet.uav[8] utilizationEnergyMaintenance 0
scalar OsgEarthNet.uav[8] utilizationEnergyCharge 0
scalar OsgEarthNet.uav[8] utilizationEnergyOverdrawMission 0
scalar OsgEarthNet.uav[8] utilizationEnergyOverdrawMaintenance 0
scalar OsgEarthNet.uav[8] utilizationCountMissions 0
scalar OsgEarthNet.uav[8] utilizationCountManeuversMission 0
scalar OsgEarthNet.uav[8] utilizationCountManeuversMaintenance 0
scalar OsgEarthNet.uav[8] utilizationCountChargeState 0
scalar OsgEarthNet.uav[8] utilizationCountOverdrawnAfterMission 0
scalar OsgEarthNet.uav[8] utilizationCountIdleState 1
scalar OsgEarthNet.uav[8] utilizationFail 0
scalar OsgEarthNet.uav[8] simulationTime 3516.8277328573
scalar OsgEarthNet.uav[9] utilizationSecMission 750.20472747826
scalar OsgEarthNet.uav[9] utilizationSecMaintenance 355.27562361416
scalar OsgEarthNet.uav[9] utilizationSecCharge 1659.1406459891
scalar OsgEarthNet.uav[9] utilizationSecIdle 752.20573577572
scalar OsgEarthNet.uav[9] utilizationEnergyMission 3558.5248718262
scalar OsgEarthNet.uav[9] utilizationEnergyMaintenance 1779.8136100769
scalar OsgEarthNet.uav[9] utilizationEnergyCharge 2851.8962402344
scalar OsgEarthNet.uav[9] utilizationEnergyOverdrawMission 0
scalar OsgEarthNet.uav[9] utilizationEnergyOverdrawMaintenance 72.372207641602
scalar OsgEarthNet.uav[9] utilizationCountMissions 1
scalar OsgEarthNet.uav[9] utilizationCountManeuversMission 11
scalar OsgEarthNet.uav[9] utilizationCountManeuversMaintenance 2
scalar OsgEarthNet.uav[9] utilizationCountChargeState 1
scalar OsgEarthNet.uav[9] utilizationCountOverdrawnAfterMission 1
scalar OsgEarthNet.uav[9] utilizationCountIdleState 1
scalar OsgEarthNet.uav[9] utilizationFail 0
scalar OsgEarthNet.uav[9] simulationTime 3516.8277328573
scalar OsgEarthNet.uav[10] utilizationSecMission 622.99605640573
scalar OsgEarthNet.uav[10] utilizationSecMaintenance 319.78771796751
scalar OsgEarthNet.uav[10] utilizationSecCharge 321.42575115686
scalar OsgEarthNet.uav[10] utilizationSecIdle 2252.6172073272
scalar OsgEarthNet.uav[10] utilizationEnergyMission 2844.2070159912
scalar OsgEarthNet.uav[10] utilizationEnergyMaintenance 1691.1496696472
scalar OsgEarthNet.uav[10] utilizationEnergyCharge 527.26312255859
scalar OsgEarthNet.uav[10] utilizationEnergyOverdrawMission 0
scalar OsgEarthNet.uav[10] utilizationEnergyOverdrawMaintenance 0
scalar OsgEarthNet.uav[10] utilizationCountMissions 1
scalar OsgEarthNet.uav[10] utilizationCountManeuversMission 9
scalar OsgEarthNet.uav[10] utilizationCountManeuversMaintenance 2
scalar OsgEarthNet.uav[10] utilizationCountChargeState 1
scalar OsgEarthNet.uav[10] utilizationCountOverdrawnAfterMission 0
scalar OsgEarthNet.uav[10] utilizationCountIdleState 1
scalar OsgEarthNet.uav[10] utilizationFail 0
scalar OsgEarthNet.uav[10] simulationTime 3516.8277328573
scalar OsgEarthNet.uav[11] utilizationSecMission 45.984210410483
scalar OsgEarthNet.uav[11] utilizationSecMaintenance 144.41826122339
scalar OsgEarthNet.uav[11] utilizationSecCharge 0
scalar OsgEarthNet.uav[11] utilizationSecIdle 3326.4242612234
scalar OsgEarthNet.uav[11] utilizationEnergyMission 242.50343783681
scalar OsgEarthNet.uav[11] utilizationEnergyMaintenance 786.01977539062
scalar OsgEarthNet.uav[11] utilizationEnergyCharge 0
scalar OsgEarthNet.uav[11] utilizationEnergyOverdrawMission 0
scalar OsgEarthNet.uav[11] utilizationEnergyOverdrawMaintenance 0
scalar OsgEarthNet.uav[11] utilizationCountMissions 0
scalar OsgEarthNet.uav[11] utilizationCountManeuversMission 3
scalar OsgEarthNet.uav[11] utilizationCountManeuversMaintenance 1
scalar OsgEarthNet.uav[11] utilizationCountChargeState 0
scalar OsgEarthNet.uav[11] utilizationCountOverdrawnAfterMission 0
scalar OsgEarthNet.uav[11] utilizationCountIdleState 1
scalar OsgEarthNet.uav[11] utilizationFail 0
scalar OsgEarthNet.uav[11] simulationTime 3516.8277328573
scalar OsgEarthNet.uav[12] utilizationSecMission 455.2793934479
scalar OsgEarthNet.uav[12] utilizationSecMaintenance 121.71051816654
scalar OsgEarthNet.uav[12] utilizationSecCharge 0
scalar OsgEarthNet.uav[12] utilizationSecIdle 2939.8368212428
scalar OsgEarthNet.uav[12] utilizationEnergyMission 2102.6507998835
scalar OsgEarthNet.uav[12] utilizationEnergyMaintenance 476.37030029297
scalar OsgEarthNet.uav[12] utilizationEnergyCharge 0
scalar OsgEarthNet.uav[12] utilizationEnergyOverdrawMission 0
scalar OsgEarthNet.uav[12] utilizationEnergyOverdrawMaintenance 0
scalar OsgEarthNet.uav[12] utilizationCountMissions 0
scalar OsgEarthNet.uav[12] utilizationCountManeuversMission 7
scalar OsgEarthNet.uav[12] utilizationCountManeuversMaintenance 1
scalar OsgEarthNet.uav[12] utilizationCountChargeState 0
scalar OsgEarthNet.uav[12] utilizationCountOverdrawnAfterMission 0
scalar OsgEarthNet.uav[12] utilizationCountIdleState 1
scalar OsgEarthNet.uav[12] utilizationFail 0
scalar OsgEarthNet.uav[12] simulationTime 3516.8277328573
scalar OsgEarthNet.uav[13] utilizationSecMission 0
scalar OsgEarthNet.uav[13] utilizationSecMaintenance 0
scalar OsgEarthNet.uav[13] utilizationSecCharge 0
scalar OsgEarthNet.uav[13] utilizationSecIdle 3516.8267328573
scalar OsgEarthNet.uav[13] utilizationEnergyMission 0
scalar OsgEarthNet.uav[13] utilizationEnergyMaintenance 0
scalar OsgEarthNet.uav[13] utilizationEnergyCharge 0
scalar OsgEarthNet.uav[13] utilizationEnergyOverdrawMission 0
scalar OsgEarthNet.uav[13] utilizationEnergyOverdrawMaintenance 0
scalar OsgEarthNet.uav[13] utilizationCountMissions 0
scalar OsgEarthNet.uav[13] utilizationCountManeuversMission 0
scalar OsgEarthNet.uav[13] utilizationCountManeuversMaintenance 0
scalar OsgEarthNet.uav[13] utilizationCountChargeState 0
scalar OsgEarthNet.uav[13] utilizationCountOverdrawnAfterMission 0
scalar OsgEarthNet.uav[13] utilizationCountIdleState 1
scalar OsgEarthNet.uav[13] utilizationFail 0
scalar OsgEarthNet.uav[13] simulationTime 3516.8277328573
scalar OsgEarthNet.uav[14] utilizationSecMission 720
scalar OsgEarthNet.uav[14] utilizationSecMaintenance 395.21104267299
scalar OsgEarthNet.uav[14] utilizationSecCharge 2399.6156901843
scalar OsgEarthNet.uav[14] utilizationSecIdle 2
scalar OsgEarthNet.uav[14] utilizationEnergyMission 4246.7552108765
scalar OsgEarthNet.uav[14] utilizationEnergyMaintenance 1838.6717033386
scalar OsgEarthNet.uav[14] utilizationEnergyCharge 4188.67578125
scalar OsgEarthNet.uav[14] utilizationEnergyOverdrawMission 0
scalar OsgEarthNet.uav[14] utilizationEnergyOverdrawMaintenance 0
scalar OsgEarthNet.uav[14] utilizationCountMissions 1
scalar OsgEarthNet.uav[14] utilizationCountManeuversMission 36
scalar OsgEarthNet.uav[14] utilizationCountManeuversMaintenance 2
scalar OsgEarthNet.uav[14] utilizationCountChargeState 1
scalar OsgEarthNet.uav[14] utilizationCountOverdrawnAfterMission 0
scalar OsgEarthNet.uav[14] utilizationCountIdleState 1
scalar OsgEarthNet.uav[14] utilizationFail 0
scalar OsgEarthNet.uav[14] simulationTime 3516.8277328573
scalar OsgEarthNet.uav[15] utilizationSecMission 620
scalar OsgEarthNet.uav[15] utilizationSecMaintenance 199.00044776404
scalar OsgEarthNet.uav[15] utilizationSecCharge 0
scalar OsgEarthNet.uav[15] utilizationSecIdle 2697.8262850932
scalar OsgEarthNet.uav[15] utilizationEnergyMission 3065.7832145691
scalar OsgEarthNet.uav[15] utilizationEnergyMaintenance 912.53403308966
scalar OsgEarthNet.uav[15] utilizationEnergyCharge 0
scalar OsgEarthNet.uav[15] utilizationEnergyOverdrawMission 0
scalar OsgEarthNet.uav[15] utilizationEnergyOverdrawMaintenance 0
scalar OsgEarthNet.uav[15] utilizationCountMissions 1
scalar OsgEarthNet.uav[15] utilizationCountManeuversMission 31
scalar OsgEarthNet.uav[15] utilizationCountManeuversMaintenance 2
scalar OsgEarthNet.uav[15] utilizationCountChargeState 0
scalar OsgEarthNet.uav[15] utilizationCountOverdrawnAfterMission 0
scalar OsgEarthNet.uav[15] utilizationCountIdleState 1
scalar OsgEarthNet.uav[15] utilizationFail 0
scalar OsgEarthNet.uav[15] simulationTime 3516.8277328573
scalar OsgEarthNet.uav[16] utilizationSecMission 0
scalar OsgEarthNet.uav[16] utilizationSecMaintenance 0
scalar OsgEarthNet.uav[16] utilizationSecCharge 0
scalar OsgEarthNet.uav[16] utilizationSecIdle 3516.8267328573
scalar OsgEarthNet.uav[16] utilizationEnergyMission 0
scalar OsgEarthNet.uav[16] utilizationEnergyMaintenance 0
scalar OsgEarthNet.uav[16] utilizationEnergyCharge 0
scalar OsgEarthNet.uav[16] utilizationEnergyOverdrawMission 0
scalar OsgEarthNet.uav[16] utilizationEnergyOverdrawMaintenance 0
scalar OsgEarthNet.uav[16] utilizationCountMissions 0
scalar OsgEarthNet.uav[16] utilizationCountManeuversMission 0
scalar OsgEarthNet.uav[16] utilizationCountManeuversMaintenance 0
scalar OsgEarthNet.uav[16] utilizationCountChargeState 0
scalar OsgEarthNet.uav[16] utilizationCountOverdrawnAfterMission 0
scalar OsgEarthNet.uav[16] utilizationCountIdleState 1
scalar OsgEarthNet.uav[16] utilizationFail 0
scalar OsgEarthNet.uav[16] simulationTime 3516.8277328573
scalar OsgEarthNet.uav[17] utilizationSecMission 671.35489086546
scalar OsgEarthNet.uav[17] utilizationSecMaintenance 415.51839052278
scalar OsgEarthNet.uav[17] utilizationSecCharge 1796.7495437091
scalar OsgEarthNet.uav[17] utilizationSecIdle 633.20390775995
scalar OsgEarthNet.uav[17] utilizationEnergyMission 3179.1243896484
scalar OsgEarthNet.uav[17] utilizationEnergyMaintenance 2193.0426864624
scalar OsgEarthNet.uav[17] utilizationEnergyCharge 3152.1159667969
scalar OsgEarthNet.uav[17] utilizationEnergyOverdrawMission 0
scalar OsgEarthNet.uav[17] utilizationEnergyOverdrawMaintenance 172.1706237793
scalar OsgEarthNet.uav[17] utilizationCountMissions 1
scalar OsgEarthNet.uav[17] utilizationCountManeuversMission 11
scalar OsgEarthNet.uav[17] utilizationCountManeuversMaintenance 2
scalar OsgEarthNet.uav[17] utilizationCountChargeState 1
scalar OsgEarthNet.uav[17] utilizationCountOverdrawnAfterMission 1
scalar OsgEarthNet.uav[17] utilizationCountIdleState 1
scalar OsgEarthNet.uav[17] utilizationFail 0
scalar OsgEarthNet.uav[17] simulationTime 3516.8277328573
scalar OsgEarthNet.uav[18] utilizationSecMission 0
scalar OsgEarthNet.uav[18] utilizationSecMaintenance 0
scalar OsgEarthNet.uav[18] utilizationSecCharge 0
scalar OsgEarthNet.uav[18] utilizationSecIdle 3516.8267328573
scalar OsgEarthNet.uav[18] utilizationEnergyMission 0
scalar OsgEarthNet.uav[18] utilizationEnergyMaintenance 0
scalar OsgEarthNet.uav[18] utilizationEnergyCharge 0
scalar OsgEarthNet.uav[18] utilizationEnergyOverdrawMission 0
scalar OsgEarthNet.uav[18] utilizationEnergyOverdrawMaintenance 0
scalar OsgEarthNet.uav[18] utilizationCountMissions 0
scalar OsgEarthNet.uav[18] utilizationCountManeuversMission 0
scalar OsgEarthNet.uav[18] utilizationCountManeuversMaintenance 0
scalar OsgEarthNet.uav[18] utilizationCountChargeState 0
scalar OsgEarthNet.uav[18] utilizationCountOverdrawnAfterMission 0
scalar OsgEarthNet.uav[18] utilizationCountIdleState 1
scalar OsgEarthNet.uav[18] utilizationFail 0
scalar OsgEarthNet.uav[18] simulationTime 3516.8277328573
scalar OsgEarthNet.uav[19] utilizationSecMission 0
scalar OsgEarthNet.uav[19] utilizationSecMaintenance 0
scalar OsgEarthNet.uav[19] utilizationSecCharge 0
scalar OsgEarthNet.uav[19] utilizationSecIdle 3516.8267328573
scalar OsgEarthNet.uav[19] utilizationEnergyMission 0
scalar OsgEarthNet.uav[19] utilizationEnergyMaintenance 0
scalar OsgEarthNet.uav[19] utilizationEnergyCharge 0
scalar OsgEarthNet.uav[19] utilizationEnergyOverdrawMission 0
scalar OsgEarthNet.uav[19] utilizationEnergyOverdrawMaintenance 0
scalar OsgEarthNet.uav[19] utilizationCountMissions 0
scalar OsgEarthNet.uav[19] utilizationCountManeuversMission 0
scalar OsgEarthNet.uav[19] utilizationCountManeuversMaintenance 0
scalar OsgEarthNet.uav[19] utilizationCountChargeState 0
scalar OsgEarthNet.uav[19] utilizationCountOverdrawnAfterMission 0
scalar OsgEarthNet.uav[19] utilizationCountIdleState 1
scalar OsgEarthNet.uav[19] utilizationFail 0
scalar OsgEarthNet.uav[19] simulationTime 3516.8277328573
scalar OsgEarthNet.uav[20] utilizationSecMission 760.62515258028
scalar OsgEarthNet.uav[20] utilizationSecMaintenance 232.91610409653
scalar OsgEarthNet.uav[20] utilizationSecCharge 851.14566303614
scalar OsgEarthNet.uav[20] utilizationSecIdle 1672.1398131443
scalar OsgEarthNet.uav[20] utilizationEnergyMission 3471.655166626
scalar OsgEarthNet.uav[20] utilizationEnergyMaintenance 1082.1072349548
scalar OsgEarthNet.uav[20] utilizationEnergyCharge 1505.9904785156
scalar OsgEarthNet.uav[20] utilizationEnergyOverdrawMission 0
scalar OsgEarthNet.uav[20] utilizationEnergyOverdrawMaintenance 0
scalar OsgEarthNet.uav[20] utilizationCountMissions 1
scalar OsgEarthNet.uav[20] utilizationCountManeuversMission 12
scalar OsgEarthNet.uav[20] utilizationCountManeuversMaintenance 2
scalar OsgEarthNet.uav[20] utilizationCountChargeState 1
scalar OsgEarthNet.uav[20] utilizationCountOverdrawnAfterMission 0
scalar OsgEarthNet.uav[20] utilizationCountIdleState 1
scalar OsgEarthNet.uav[20] utilizationFail 0
scalar OsgEarthNet.uav[20] simulationTime 3516.8277328573
scalar OsgEarthNet.uav[21] utilizationSecMission 0
scalar OsgEarthNet.uav[21] utilizationSecMaintenance 0
scalar OsgEarthNet.uav[21] utilizationSecCharge 0
scalar OsgEarthNet.uav[21] utilizationSecIdle 3516.8267328573
scalar OsgEarthNet.uav[21] utilizationEnergyMission 0
scalar OsgEarthNet.uav[21] utilizationEnergyMaintenance 0
scalar OsgEarthNet.uav[21] utilizationEnergyCharge 0
scalar OsgEarthNet.uav[21] utilizationEnergyOverdrawMission 0
scalar OsgEarthNet.uav[21] utilizationEnergyOverdrawMaintenance 0
scalar OsgEarthNet.uav[21] utilizationCountMissions 0
scalar OsgEarthNet.uav[21] utilizationCountManeuversMission 0
scalar OsgEarthNet.uav[21] utilizationCountManeuversMaintenance 0
scalar OsgEarthNet.uav[21] utilizationCountChargeState 0
scalar OsgEarthNet.uav[21] utilizationCountOverdrawnAfterMission 0
scalar OsgEarthNet.uav[21] utilizationCountIdleState 1
scalar OsgEarthNet.uav[21] utilizationFail 0
scalar OsgEarthNet.uav[21] simulationTime 3516.8277328573
scalar OsgEarthNet.uav[22] utilizationSecMission 887.1741082606
scalar OsgEarthNet.uav[22] utilizationSecMaintenance 181.20511066264
scalar OsgEarthNet.uav[22] utilizationSecCharge 672.09729311256
scalar OsgEarthNet.uav[22] utilizationSecIdle 1776.3502208215
scalar OsgEarthNet.uav[22] utilizationEnergyMission 3955.7485809326
scalar OsgEarthNet.uav[22] utilizationEnergyMaintenance 967.13908004761
scalar OsgEarthNet.uav[22] utilizationEnergyCharge 1142.5618896484
scalar OsgEarthNet.uav[22] utilizationEnergyOverdrawMission 0
scalar OsgEarthNet.uav[22] utilizationEnergyOverdrawMaintenance 0
scalar OsgEarthNet.uav[22] utilizationCountMissions 1
scalar OsgEarthNet.uav[22] utilizationCountManeuversMission 14
scalar OsgEarthNet.uav[22] utilizationCountManeuversMaintenance 2
scalar OsgEarthNet.uav[22] utilizationCountChargeState 1
scalar OsgEarthNet.uav[22] utilizationCountOverdrawnAfterMission 0
scalar OsgEarthNet.uav[22] utilizationCountIdleState 1
scalar OsgEarthNet.uav[22] utilizationFail 0
scalar OsgEarthNet.uav[22] simulationTime 3516.8277328573
scalar OsgEarthNet.uav[23] utilizationSecMission 0
scalar OsgEarthNet.uav[23] utilizationSecMaintenance 0
scalar OsgEarthNet.uav[23] utilizationSecCharge 0
scalar OsgEarthNet.uav[23] utilizationSecIdle 3516.8267328573
scalar OsgEarthNet.uav[23] utilizationEnergyMission 0
scalar OsgEarthNet.uav[23] utilizationEnergyMaintenance 0
scalar OsgEarthNet.uav[23] utilizationEnergyCharge 0
scalar OsgEarthNet.uav[23] utilizationEnergyOverdrawMission 0
scalar OsgEarthNet.uav[23] utilizationEnergyOverdrawMaintenance 0
scalar OsgEarthNet.uav[23] utilizationCountMissions 0
scalar OsgEarthNet.uav[23] utilizationCountManeuversMission 0
scalar OsgEarthNet.uav[23] utilizationCountManeuversMaintenance 0
scalar OsgEarthNet.uav[23] utilizationCountChargeState 0
scalar OsgEarthNet.uav[23] utilizationCountOverdrawnAfterMission 0
scalar OsgEarthNet.uav[23] utilizationCountIdleState 1
scalar OsgEarthNet.uav[23] utilizationFail 0
scalar OsgEarthNet.uav[23] simulationTime 3516.8277328573
scalar OsgEarthNet.uav[24] utilizationSecMission 0
scalar OsgEarthNet.uav[24] utilizationSecMaintenance 0
scalar OsgEarthNet.uav[24] utilizationSecCharge 0
scalar OsgEarthNet.uav[24] utilizationSecIdle 3516.8267328573
scalar OsgEarthNet.uav[24] utilizationEnergyMission 0
scalar OsgEarthNet.uav[24] utilizationEnergyMaintenance 0
scalar OsgEarthNet.uav[24] utilizationEnergyCharge 0
scalar OsgEarthNet.uav[24] utilizationEnergyOverdrawMission 0
scalar OsgEarthNet.uav[24] utilizationEnergyOverdrawMaintenance 0
scalar OsgEarthNet.uav[24] utilizationCountMissions 0
scalar OsgEarthNet.uav[24] utilizationCountManeuversMission 0
scalar OsgEarthNet.uav[24] utilizationCountManeuversMaintenance 0
scalar OsgEarthNet.uav[24] utilizationCountChargeState 0
scalar OsgEarthNet.uav[24] utilizationCountOverdrawnAfterMission 0
scalar OsgEarthNet.uav[24] utilizationCountIdleState 1
scalar OsgEarthNet.uav[24] utilizationFail 0
scalar OsgEarthNet.uav[24] simulationTime 3516.8277328573
scalar OsgEarthNet.uav[25] utilizationSecMission 800
scalar OsgEarthNet.uav[25] utilizationSecMaintenance 262.82841927123
scalar OsgEarthNet.uav[25] utilizationSecCharge 107.67193415328
scalar OsgEarthNet.uav[25] utilizationSecIdle 2346.3263794327
scalar OsgEarthNet.uav[25] utilizationEnergyMission 3824.9551773071
scalar OsgEarthNet.uav[25] utilizationEnergyMaintenance 1158.6067008972
scalar OsgEarthNet.uav[25] utilizationEnergyCharge 176.02871704102
scalar OsgEarthNet.uav[25] utilizationEnergyOverdrawMission 0
scalar OsgEarthNet.uav[25] utilizationEnergyOverdrawMaintenance 0
scalar OsgEarthNet.uav[25] utilizationCountMissions 1
scalar OsgEarthNet.uav[25] utilizationCountManeuversMission 40
scalar OsgEarthNet.uav[25] utilizationCountManeuversMaintenance 2
scalar OsgEarthNet.uav[25] utilizationCountChargeState 1
scalar OsgEarthNet.uav[25] utilizationCountOverdrawnAfterMission 0
scalar OsgEarthNet.uav[25] utilizationCountIdleState 1
scalar OsgEarthNet.uav[25] utilizationFail 0
scalar OsgEarthNet.uav[25] simulationTime 3516.8277328573
scalar OsgEarthNet.uav[26] utilizationSecMission 760.62515258028
scalar OsgEarthNet.uav[26] utilizationSecMaintenance 202.91610409653
scalar OsgEarthNet.uav[26] utilizationSecCharge 1651.7718152308
scalar OsgEarthNet.uav[26] utilizationSecIdle 901.51366094966
scalar OsgEarthNet.uav[26] utilizationEnergyMission 3626.2529449463
scalar OsgEarthNet.uav[26] utilizationEnergyMaintenance 993.42485809326
scalar OsgEarthNet.uav[26] utilizationEnergyCharge 2911.8347167969
scalar OsgEarthNet.uav[26] utilizationEnergyOverdrawMission 0
scalar OsgEarthNet.uav[26] utilizationEnergyOverdrawMaintenance 0
scalar OsgEarthNet.uav[26] utilizationCountMissions 1
scalar OsgEarthNet.uav[26] utilizationCountManeuversMission 12
scalar OsgEarthNet.uav[26] utilizationCountManeuversMaintenance 2
scalar OsgEarthNet.uav[26] utilizationCountChargeState 1
scalar OsgEarthNet.uav[26] utilizationCountOverdrawnAfterMission 0
scalar OsgEarthNet.uav[26] utilizationCountIdleState 1
scalar OsgEarthNet.uav[26] utilizationFail 0
scalar OsgEarthNet.uav[26] simulationTime 3516.8277328573
scalar OsgEarthNet.uav[27] utilizationSecMission 0
scalar OsgEarthNet.uav[27] utilizationSecMaintenance 0
scalar OsgEarthNet.uav[27] utilizationSecCharge 0
scalar OsgEarthNet.uav[27] utilizationSecIdle 3516.8267328573
scalar OsgEarthNet.uav[27] utilizationEnergyMission 0
scalar OsgEarthNet.uav[27] utilizationEnergyMaintenance 0
scalar OsgEarthNet.uav[27] utilizationEnergyCharge 0
scalar OsgEarthNet.uav[27] utilizationEnergyOverdrawMission 0
scalar OsgEarthNet.uav[27] utilizationEnergyOverdrawMaintenance 0
scalar OsgEarthNet.uav[27] utilizationCountMissions 0
scalar OsgEarthNet.uav[27] utilizationCountManeuversMission 0
scalar OsgEarthNet.uav[27] utilizationCountManeuversMaintenance 0
scalar OsgEarthNet.uav[27] utilizationCountChargeState 0
scalar OsgEarthNet.uav[27] utilizationCountOverdrawnAfterMission 0
scalar OsgEarthNet.uav[27] utilizationCountIdleState 1
scalar OsgEarthNet.uav[27] utilizationFail 0
scalar OsgEarthNet.uav[27] simulationTime 3516.8277328573
scalar OsgEarthNet.uav[28] utilizationSecMission 740
scalar OsgEarthNet.uav[28] utilizationSecMaintenance 262.82841927123
scalar OsgEarthNet.uav[28] utilizationSecCharge 911.99631358602
scalar OsgEarthNet.uav[28] utilizationSecIdle 1602.002
scalar OsgEarthNet.uav[28] utilizationEnergyMission 3978.5367736816
scalar OsgEarthNet.uav[28] utilizationEnergyMaintenance 1076.0033683777
scalar OsgEarthNet.uav[28] utilizationEnergyCharge 1553.4392089844
scalar OsgEarthNet.uav[28] utilizationEnergyOverdrawMission 0
scalar OsgEarthNet.uav[28] utilizationEnergyOverdrawMaintenance 0
scalar OsgEarthNet.uav[28] utilizationCountMissions 1
scalar OsgEarthNet.uav[28] utilizationCountManeuversMission 37
scalar OsgEarthNet.uav[28] utilizationCountManeuversMaintenance 2
scalar OsgEarthNet.uav[28] utilizationCountChargeState 1
scalar OsgEarthNet.uav[28] utilizationCountOverdrawnAfterMission 0
scalar OsgEarthNet.uav[28] utilizationCountIdleState 1
scalar OsgEarthNet.uav[28] utilizationFail 0
scalar OsgEarthNet.uav[28] simulationTime 3516.8277328573
scalar OsgEarthNet.uav[29] utilizationSecMission 0
scalar OsgEarthNet.uav[29] utilizationSecMaintenance 0
scalar OsgEarthNet.uav[29] utilizationSecCharge 0
scalar OsgEarthNet.uav[29] utilizationSecIdle 3516.8267328573
scalar OsgEarthNet.uav[29] utilizationEnergyMission 0
scalar OsgEarthNet.uav[29] utilizationEnergyMaintenance 0
scalar OsgEarthNet.uav[29] utilizationEnergyCharge 0
scalar OsgEarthNet.uav[29] utilizationEnergyOverdrawMission 0
scalar OsgEarthNet.uav[29] utilizationEnergyOverdrawMaintenance 0
scalar OsgEarthNet.uav[29] utilizationCountMissions 0
scalar OsgEarthNet.uav[29] utilizationCountManeuversMission 0
scalar OsgEarthNet.uav[29] utilizationCountManeuversMaintenance 0
scalar OsgEarthNet.uav[29] utilizationCountChargeState 0
scalar OsgEarthNet.uav[29] utilizationCountOverdrawnAfterMission 0
scalar OsgEarthNet.uav[29] utilizationCountIdleState 1
scalar OsgEarthNet.uav[29] utilizationFail 0
scalar OsgEarthNet.uav[29] simulationTime 3516.8277328573
scalar OsgEarthNet.uav[30] utilizationSecMission 0
scalar OsgEarthNet.uav[30] utilizationSecMaintenance 0
scalar OsgEarthNet.uav[30] utilizationSecCharge 0
scalar OsgEarthNet.uav[30] utilizationSecIdle 3516.8267328573
scalar OsgEarthNet.uav[30] utilizationEnergyMission 0
scalar OsgEarthNet.uav[30] utilizationEnergyMaintenance 0
scalar OsgEarthNet.uav[30] utilizationEnergyCharge 0
scalar OsgEarthNet.uav[30] utilizationEnergyOverdrawMission 0
scalar OsgEarthNet.uav[30] utilizationEnergyOverdrawMaintenance 0
scalar OsgEarthNet.uav[30] utilizationCountMissions 0
scalar OsgEarthNet.uav[30] utilizationCountManeuversMission 0
scalar OsgEarthNet.uav[30] utilizationCountManeuversMaintenance 0
scalar OsgEarthNet.uav[30] utilizationCountChargeState 0
scalar OsgEarthNet.uav[30] utilizationCountOverdrawnAfterMission 0
scalar OsgEarthNet.uav[30] utilizationCountIdleState 1
scalar OsgEarthNet.uav[30] utilizationFail 0
scalar OsgEarthNet.uav[30] simulationTime 3516.8277328573
scalar OsgEarthNet.uav[31] utilizationSecMission 0
scalar OsgEarthNet.uav[31] utilizationSecMaintenance 0
scalar OsgEarthNet.uav[31] utilizationSecCharge 0
scalar OsgEarthNet.uav[31] utilizationSecIdle 3516.8267328573
scalar OsgEarthNet.uav[31] utilizationEnergyMission 0
scalar OsgEarthNet.uav[31] utilizationEnergyMaintenance 0
scalar OsgEarthNet.uav[31] utilizationEnergyCharge 0
scalar OsgEarthNet.uav[31] utilizationEnergyOverdrawMission 0
scalar OsgEarthNet.uav[31] utilizationEnergyOverdrawMaintenance 0
scalar OsgEarthNet.uav[31] utilizationCountMissions 0
scalar OsgEarthNet.uav[31] utilizationCountManeuversMission 0
scalar OsgEarthNet.uav[31] utilizationCountManeuversMaintenance 0
scalar OsgEarthNet.uav[31] utilizationCountChargeState 0
scalar OsgEarthNet.uav[31] utilizationCountOverdrawnAfterMission 0
scalar OsgEarthNet.uav[31] utilizationCountIdleState 1
scalar OsgEarthNet.uav[31] utilizationFail 0
scalar OsgEarthNet.uav[31] simulationTime 3516.8277328573
scalar OsgEarthNet.uav[32] utilizationSecMission 640
scalar OsgEarthNet.uav[32] utilizationSecMaintenance 390.60696956236
scalar OsgEarthNet.uav[32] utilizationSecCharge 1116.3066207483
scalar OsgEarthNet.uav[32] utilizationSecIdle 1369.9131425466
scalar OsgEarthNet.uav[32] utilizationEnergyMission 3236.6373786926
scalar OsgEarthNet.uav[32] utilizationEnergyMaintenance 1956.1793327332
scalar OsgEarthNet.uav[32] utilizationEnergyCharge 1906.65234375
scalar OsgEarthNet.uav[32] utilizationEnergyOverdrawMission 0
scalar OsgEarthNet.uav[32] utilizationEnergyOverdrawMaintenance 0
scalar OsgEarthNet.uav[32] utilizationCountMissions 1
scalar OsgEarthNet.uav[32] utilizationCountManeuversMission 32
scalar OsgEarthNet.uav[32] utilizationCountManeuversMaintenance 2
scalar OsgEarthNet.uav[32] utilizationCountChargeState 1
scalar OsgEarthNet.uav[32] utilizationCountOverdrawnAfterMission 0
scalar OsgEarthNet.uav[32] utilizationCountIdleState 1
scalar OsgEarthNet.uav[32] utilizationFail 0
scalar OsgEarthNet.uav[32] simulationTime 3516.8277328573
scalar OsgEarthNet.uav[33] utilizationSecMission 0
scalar OsgEarthNet.uav[33] utilizationSecMaintenance 0
scalar OsgEarthNet.uav[33] utilizationSecCharge 0
scalar OsgEarthNet.uav[33] utilizationSecIdle 3516.8267328573
scalar OsgEarthNet.uav[33] utilizationEnergyMission 0
scalar OsgEarthNet.uav[33] utilizationEnergyMaintenance 0
scalar OsgEarthNet.uav[33] utilizationEnergyCharge 0
scalar OsgEarthNet.uav[33] utilizationEnergyOverdrawMission 0
scalar OsgEarthNet.uav[33] utilizationEnergyOverdrawMaintenance 0
scalar OsgEarthNet.uav[33] utilizationCountMissions 0
scalar OsgEarthNet.uav[33] utilizationCountManeuversMission 0
scalar OsgEarthNet.uav[33] utilizationCountManeuversMaintenance 0
scalar OsgEarthNet.uav[33] utilizationCountChargeState 0
scalar OsgEarthNet.uav[33] utilizationCountOverdrawnAfterMission 0
scalar OsgEarthNet.uav[33] utilizationCountIdleState 1
scalar OsgEarthNet.uav[33] utilizationFail 0
scalar OsgEarthNet.uav[33] simulationTime 3516.8277328573
scalar OsgEarthNet.uav[34] utilizationSecMission 640
scalar OsgEarthNet.uav[34] utilizationSecMaintenance 395.21104267299
scalar OsgEarthNet.uav[34] utilizationSecCharge 435.19342896088
scalar OsgEarthNet.uav[34] utilizationSecIdle 2046.4222612234
scalar OsgEarthNet.uav[34] utilizationEnergyMission 3374.1535339355
scalar OsgEarthNet.uav[34] utilizationEnergyMaintenance 1818.8314323425
scalar OsgEarthNet.uav[34] utilizationEnergyCharge 732.55767822266
scalar OsgEarthNet.uav[34] utilizationEnergyOverdrawMission 0
scalar OsgEarthNet.uav[34] utilizationEnergyOverdrawMaintenance 0
scalar OsgEarthNet.uav[34] utilizationCountMissions 1
scalar OsgEarthNet.uav[34] utilizationCountManeuversMission 32
scalar OsgEarthNet.uav[34] utilizationCountManeuversMaintenance 2
scalar OsgEarthNet.uav[34] utilizationCountChargeState 1
scalar OsgEarthNet.uav[34] utilizationCountOverdrawnAfterMission 0
scalar OsgEarthNet.uav[34] utilizationCountIdleState 1
scalar OsgEarthNet.uav[34] utilizationFail 0
scalar OsgEarthNet.uav[34] simulationTime 3516.8277328573
scalar OsgEarthNet.uav[35] utilizationSecMission 955.1255810082
scalar OsgEarthNet.uav[35] utilizationSecMaintenance 180.07034649573
scalar OsgEarthNet.uav[35] utilizationSecCharge 2379.6308053533
scalar OsgEarthNet.uav[35] utilizationSecIdle 2
scalar OsgEarthNet.uav[35] utilizationEnergyMission 4381.5358223522
scalar OsgEarthNet.uav[35] utilizationEnergyMaintenance 758.71522140503
scalar OsgEarthNet.uav[35] utilizationEnergyCharge 4135.3544921875
scalar OsgEarthNet.uav[35] utilizationEnergyOverdrawMission 0
scalar OsgEarthNet.uav[35] utilizationEnergyOverdrawMaintenance 0
scalar OsgEarthNet.uav[35] utilizationCountMissions 1
scalar OsgEarthNet.uav[35] utilizationCountManeuversMission 17
scalar OsgEarthNet.uav[35] utilizationCountManeuversMaintenance 1
scalar OsgEarthNet.uav[35] utilizationCountChargeState 1
scalar OsgEarthNet.uav[35] utilizationCountOverdrawnAfterMission 0
scalar OsgEarthNet.uav[35] utilizationCountIdleState 1
scalar OsgEarthNet.uav[35] utilizationFail 0
scalar OsgEarthNet.uav[35] simulationTime 3516.8277328573
scalar OsgEarthNet.uav[36] utilizationSecMission 0
scalar OsgEarthNet.uav[36] utilizationSecMaintenance 0
scalar OsgEarthNet.uav[36] utilizationSecCharge 0
scalar OsgEarthNet.uav[36] utilizationSecIdle 3516.8267328573
scalar OsgEarthNet.uav[36] utilizationEnergyMission 0
scalar OsgEarthNet.uav[36] utilizationEnergyMaintenance 0
scalar OsgEarthNet.uav[36] utilizationEnergyCharge 0
scalar OsgEarthNet.uav[36] utilizationEnergyOverdrawMission 0
scalar OsgEarthNet.uav[36] utilizationEnergyOverdrawMaintenance 0
scalar OsgEarthNet.uav[36] utilizationCountMissions 0
scalar OsgEarthNet.uav[36] utilizationCountManeuversMission 0
scalar OsgEarthNet.uav[36] utilizationCountManeuversMaintenance 0
scalar OsgEarthNet.uav[36] utilizationCountChargeState 0
scalar OsgEarthNet.uav[36] utilizationCountOverdrawnAfterMission 0
scalar OsgEarthNet.uav[36] utilizationCountIdleState 1
scalar OsgEarthNet.uav[36] utilizationFail 0
scalar OsgEarthNet.uav[36] simulationTime 3516.8277328573
scalar OsgEarthNet.uav[37] utilizationSecMission 0
scalar OsgEarthNet.uav[37] utilizationSecMaintenance 0
scalar OsgEarthNet.uav[37] utilizationSecCharge 0
scalar OsgEarthNet.uav[37] utilizationSecIdle 3516.8267328573
scalar OsgEarthNet.uav[37] utilizationEnergyMission 0
scalar OsgEarthNet.uav[37] utilizationEnergyMaintenance 0
scalar OsgEarthNet.uav[37] utilizationEnergyCharge 0
scalar OsgEarthNet.uav[37] utilizationEnergyOverdrawMission 0
scalar OsgEarthNet.uav[37] utilizationEnergyOverdrawMaintenance 0
scalar OsgEarthNet.uav[37] utilizationCountMissions 0
scalar OsgEarthNet.uav[37] utilizationCountManeuversMission 0
scalar OsgEarthNet.uav[37] utilizationCountManeuversMaintenance 0
scalar OsgEarthNet.uav[37] utilizationCountChargeState 0
scalar OsgEarthNet.uav[37] utilizationCountOverdrawnAfterMission 0
scalar OsgEarthNet.uav[37] utilizationCountIdleState 1
scalar OsgEarthNet.uav[37] utilizationFail 0
scalar OsgEarthNet.uav[37] simulationTime 3516.8277328573
scalar OsgEarthNet.uav[38] utilizationSecMission 772.45178258025
scalar OsgEarthNet.uav[38] utilizationSecMaintenance 80.849619044829
scalar OsgEarthNet.uav[38] utilizationSecCharge 0
scalar OsgEarthNet.uav[38] utilizationSecIdle 2663.5253312322
scalar OsgEarthNet.uav[38] utilizationEnergyMission 3324.0184354305
scalar OsgEarthNet.uav[38] utilizationEnergyMaintenance 424.25653076172
scalar OsgEarthNet.uav[38] utilizationEnergyCharge 0
scalar OsgEarthNet.uav[38] utilizationEnergyOverdrawMission 0
scalar OsgEarthNet.uav[38] utilizationEnergyOverdrawMaintenance 0
scalar OsgEarthNet.uav[38] utilizationCountMissions 0
scalar OsgEarthNet.uav[38] utilizationCountManeuversMission 12
scalar OsgEarthNet.uav[38] utilizationCountManeuversMaintenance 1
scalar OsgEarthNet.uav[38] utilizationCountChargeState 0
scalar OsgEarthNet.uav[38] utilizationCountOverdrawnAfterMission 0
scalar OsgEarthNet.uav[38] utilizationCountIdleState 1
scalar OsgEarthNet.uav[38] utilizationFail 0
scalar OsgEarthNet.uav[38] simulationTime 3516.8277328573
scalar OsgEarthNet.uav[39] utilizationSecMission 870.88319133083
scalar OsgEarthNet.uav[39] utilizationSecMaintenance 164.32340436145
scalar OsgEarthNet.uav[39] utilizationSecCharge 0
scalar OsgEarthNet.uav[39] utilizationSecIdle 2481.620137165
scalar OsgEarthNet.uav[39] utilizationEnergyMission 4075.3075408936
scalar OsgEarthNet.uav[39] utilizationEnergyMaintenance 776.64939758689
scalar OsgEarthNet.uav[39] utilizationEnergyCharge 0
scalar OsgEarthNet.uav[39] utilizationEnergyOverdrawMission 0
scalar OsgEarthNet.uav[39] utilizationEnergyOverdrawMaintenance 0
scalar OsgEarthNet.uav[39] utilizationCountMissions 1
scalar OsgEarthNet.uav[39] utilizationCountManeuversMission 13
scalar OsgEarthNet.uav[39] utilizationCountManeuversMaintenance 2
scalar OsgEarthNet.uav[39] utilizationCountChargeState 0
scalar OsgEarthNet.uav[39] utilizationCountOverdrawnAfterMission 0
scalar OsgEarthNet.uav[39] utilizationCountIdleState 1
scalar OsgEarthNet.uav[39] utilizationFail 0
scalar OsgEarthNet.uav[39] simulationTime 3516.8277328573
scalar OsgEarthNet.uav[40] utilizationSecMission 0
scalar OsgEarthNet.uav[40] utilizationSecMaintenance 0
scalar OsgEarthNet.uav[40] utilizationSecCharge 0
scalar OsgEarthNet.uav[40] utilizationSecIdle 3516.8267328573
scalar OsgEarthNet.uav[40] utilizationEnergyMission 0
scalar OsgEarthNet.uav[40] utilizationEnergyMaintenance 0
scalar OsgEarthNet.uav[40] utilizationEnergyCharge 0
scalar OsgEarthNet.uav[40] utilizationEnergyOverdrawMission 0
scalar OsgEarthNet.uav[40] utilizationEnergyOverdrawMaintenance 0
scalar OsgEarthNet.uav[40] utilizationCountMissions 0
scalar OsgEarthNet.uav[40] utilizationCountManeuversMission 0
scalar OsgEarthNet.uav[40] utilizationCountManeuversMaintenance 0
scalar OsgEarthNet.uav[40] utilizationCountChargeState 0
scalar OsgEarthNet.uav[40] utilizationCountOverdrawnAfterMission 0
scalar OsgEarthNet.uav[40] utilizationCountIdleState 1
scalar OsgEarthNet.uav[40] utilizationFail 0
scalar OsgEarthNet.uav[40] simulationTime 3516.8277328573
scalar OsgEarthNet.uav[41] utilizationSecMission 795.77245132168
scalar OsgEarthNet.uav[41] utilizationSecMaintenance 266.37419144141
scalar OsgEarthNet.uav[41] utilizationSecCharge 2452.6800900942
scalar OsgEarthNet.uav[41] utilizationSecIdle 2
scalar OsgEarthNet.uav[41] utilizationEnergyMission 3973.9978477478
scalar OsgEarthNet.uav[41] utilizationEnergyMaintenance 1201.5767936707
scalar OsgEarthNet.uav[41] utilizationEnergyCharge 4272.0092773438
scalar OsgEarthNet.uav[41] utilizationEnergyOverdrawMission 0
scalar OsgEarthNet.uav[41] utilizationEnergyOverdrawMaintenance 52.47416305542
scalar OsgEarthNet.uav[41] utilizationCountMissions 1
scalar OsgEarthNet.uav[41] utilizationCountManeuversMission 13
scalar OsgEarthNet.uav[41] utilizationCountManeuversMaintenance 1
scalar OsgEarthNet.uav[41] utilizationCountChargeState 1
scalar OsgEarthNet.uav[41] utilizationCountOverdrawnAfterMission 1
scalar OsgEarthNet.uav[41] utilizationCountIdleState 1
scalar OsgEarthNet.uav[41] utilizationFail 0
scalar OsgEarthNet.uav[41] simulationTime 3516.8277328573
scalar OsgEarthNet.uav[42] utilizationSecMission 694.00169469977
scalar OsgEarthNet.uav[42] utilizationSecMaintenance 338.49695459722
scalar OsgEarthNet.uav[42] utilizationSecCharge 1685.6281105289
scalar OsgEarthNet.uav[42] utilizationSecIdle 798.69997303138
scalar OsgEarthNet.uav[42] utilizationEnergyMission 3316.6391372681
scalar OsgEarthNet.uav[42] utilizationEnergyMaintenance 1512.5077018738
scalar OsgEarthNet.uav[42] utilizationEnergyCharge 2897.3828125
scalar OsgEarthNet.uav[42] utilizationEnergyOverdrawMission 0
scalar OsgEarthNet.uav[42] utilizationEnergyOverdrawMaintenance 0
scalar OsgEarthNet.uav[42] utilizationCountMissions 1
scalar OsgEarthNet.uav[42] utilizationCountManeuversMission 13
scalar OsgEarthNet.uav[42] utilizationCountManeuversMaintenance 2
scalar OsgEarthNet.uav[42] utilizationCountChargeState 1
scalar OsgEarthNet.uav[42] utilizationCountOverdrawnAfterMission 0
scalar OsgEarthNet.uav[42] utilizationCountIdleState 1
scalar OsgEarthNet.uav[42] utilizationFail 0
scalar OsgEarthNet.uav[42] simulationTime 3516.8277328573
scalar OsgEarthNet.uav[43] utilizationSecMission 0
scalar OsgEarthNet.uav[43] utilizationSecMaintenance 0
scalar OsgEarthNet.uav[43] utilizationSecCharge 0
scalar OsgEarthNet.uav[43] utilizationSecIdle 3516.8267328573
scalar OsgEarthNet.uav[43] utilizationEnergyMission 0
scalar OsgEarthNet.uav[43] utilizationEnergyMaintenance 0
scalar OsgEarthNet.uav[43] utilizationEnergyCharge 0
scalar OsgEarthNet.uav[43] utilizationEnergyOverdrawMission 0
scalar OsgEarthNet.uav[43] utilizationEnergyOverdrawMaintenance 0
scalar OsgEarthNet.uav[43] utilizationCountMissions 0
scalar OsgEarthNet.uav[43] utilizationCountManeuversMission 0
scalar OsgEarthNet.uav[43] utilizationCountManeuversMaintenance 0
scalar OsgEarthNet.uav[43] utilizationCountChargeState 0
scalar OsgEarthNet.uav[43] utilizationCountOverdrawnAfterMission 0
scalar OsgEarthNet.uav[43] utilizationCountIdleState 1
scalar OsgEarthNet.uav[43] utilizationFail 0
scalar OsgEarthNet.uav[43] simulationTime 3516.8277328573
scalar OsgEarthNet.uav[44] utilizationSecMission 0
scalar OsgEarthNet.uav[44] utilizationSecMaintenance 0
scalar OsgEarthNet.uav[44] utilizationSecCharge 0
scalar OsgEarthNet.uav[44] utilizationSecIdle 3516.8267328573
scalar OsgEarthNet.uav[44] utilizationEnergyMission 0
scalar OsgEarthNet.uav[44] utilizationEnergyMaintenance 0
scalar OsgEarthNet.uav[44] utilizationEnergyCharge 0
scalar OsgEarthNet.uav[44] utilizationEnergyOverdrawMission 0
scalar OsgEarthNet.uav[44] utilizationEnergyOverdrawMaintenance 0
scalar OsgEarthNet.uav[44] utilizationCountMissions 0
scalar OsgEarthNet.uav[44] utilizationCountManeuversMission 0
scalar OsgEarthNet.uav[44] utilizationCountManeuversMaintenance 0
scalar OsgEarthNet.uav[44] utilizationCountChargeState 0
scalar OsgEarthNet.uav[44] utilizationCountOverdrawnAfterMission 0
scalar OsgEarthNet.uav[44] utilizationCountIdleState 1
scalar OsgEarthNet.uav[44] utilizationFail 0
scalar OsgEarthNet.uav[44] simulationTime 3516.8277328573
scalar OsgEarthNet.uav[45] utilizationSecMission 720
scalar OsgEarthNet.uav[45] utilizationSecMaintenance 390.60696956236
scalar OsgEarthNet.uav[45] utilizationSecCharge 2404.2197632949
scalar OsgEarthNet.uav[45] utilizationSecIdle 2
scalar OsgEarthNet.uav[45] utilizationEnergyMission 3440.8930740356
scalar OsgEarthNet.uav[45] utilizationEnergyMaintenance 1792.1806144714
scalar OsgEarthNet.uav[45] utilizationEnergyCharge 4168.6875
scalar OsgEarthNet.uav[45] utilizationEnergyOverdrawMission 0
scalar OsgEarthNet.uav[45] utilizationEnergyOverdrawMaintenance 0
scalar OsgEarthNet.uav[45] utilizationCountMissions 1
scalar OsgEarthNet.uav[45] utilizationCountManeuversMission 36
scalar OsgEarthNet.uav[45] utilizationCountManeuversMaintenance 2
scalar OsgEarthNet.uav[45] utilizationCountChargeState 1
scalar OsgEarthNet.uav[45] utilizationCountOverdrawnAfterMission 0
scalar OsgEarthNet.uav[45] utilizationCountIdleState 1
scalar OsgEarthNet.uav[45] utilizationFail 0
scalar OsgEarthNet.uav[45] simulationTime 3516.8277328573
scalar OsgEarthNet.uav[46] utilizationSecMission 967.86187931103
scalar OsgEarthNet.uav[46] utilizationSecMaintenance 124.56688612079
scalar OsgEarthNet.uav[46] utilizationSecCharge 2422.3979674254
scalar OsgEarthNet.uav[46] utilizationSecIdle 2
scalar OsgEarthNet.uav[46] utilizationEnergyMission 4438.8761101244
scalar OsgEarthNet.uav[46] utilizationEnergyMaintenance 537.12995529175
scalar OsgEarthNet.uav[46] utilizationEnergyCharge 4197.8583984375
scalar OsgEarthNet.uav[46] utilizationEnergyOverdrawMission 0
scalar OsgEarthNet.uav[46] utilizationEnergyOverdrawMaintenance 0
scalar OsgEarthNet.uav[46] utilizationCountMissions 1
scalar OsgEarthNet.uav[46] utilizationCountManeuversMission 15
scalar OsgEarthNet.uav[46] utilizationCountManeuversMaintenance 1
scalar OsgEarthNet.uav[46] utilizationCountChargeState 1
scalar OsgEarthNet.uav[46] utilizationCountOverdrawnAfterMission 0
scalar OsgEarthNet.uav[46] utilizationCountIdleState 1
scalar OsgEarthNet.uav[46] utilizationFail 0
scalar OsgEarthNet.uav[46] simulationTime 3516.8277328573
scalar OsgEarthNet.uav[47] utilizationSecMission 0
scalar OsgEarthNet.uav[47] utilizationSecMaintenance 0
scalar OsgEarthNet.uav[47] utilizationSecCharge 0
scalar OsgEarthNet.uav[47] utilizationSecIdle 3516.8267328573
scalar OsgEarthNet.uav[47] utilizationEnergyMission 0
scalar OsgEarthNet.uav[47] utilizationEnergyMaintenance 0
scalar OsgEarthNet.uav[47] utilizationEnergyCharge 0
scalar OsgEarthNet.uav[47] utilizationEnergyOverdrawMission 0
scalar OsgEarthNet.uav[47] utilizationEnergyOverdrawMaintenance 0
scalar OsgEarthNet.uav[47] utilizationCountMissions 0
scalar OsgEarthNet.uav[47] utilizationCountManeuversMission 0
scalar OsgEarthNet.uav[47] utilizationCountManeuversMaintenance 0
scalar OsgEarthNet.uav[47] utilizationCountChargeState 0
scalar OsgEarthNet.uav[47] utilizationCountOverdrawnAfterMission 0
scalar OsgEarthNet.uav[47] utilizationCountIdleState 1
scalar OsgEarthNet.uav[47] utilizationFail 0
scalar OsgEarthNet.uav[47] simulationTime 3516.8277328573
scalar OsgEarthNet.uav[48] utilizationSecMission 23.178162670831
scalar OsgEarthNet.uav[48] utilizationSecMaintenance 167.91014254661
scalar OsgEarthNet.uav[48] utilizationSecCharge 0
scalar OsgEarthNet.uav[48] utilizationSecIdle 3325.7384276398
scalar OsgEarthNet.uav[48] utilizationEnergyMission 161.95009201552
scalar OsgEarthNet.uav[48] utilizationEnergyMaintenance 800.34344482422
scalar OsgEarthNet.uav[48] utilizationEnergyCharge 0
scalar OsgEarthNet.uav[48] utilizationEnergyOverdrawMission 0
scalar OsgEarthNet.uav[48] utilizationEnergyOverdrawMaintenance 0
scalar OsgEarthNet.uav[48] utilizationCountMissions 0
scalar OsgEarthNet.uav[48] utilizationCountManeuversMission 2
scalar OsgEarthNet.uav[48] utilizationCountManeuversMaintenance 1
scalar OsgEarthNet.uav[48] utilizationCountChargeState 0
scalar OsgEarthNet.uav[48] utilizationCountOverdrawnAfterMission 0
scalar OsgEarthNet.uav[48] utilizationCountIdleState 1
scalar OsgEarthNet.uav[48] utilizationFail 0
scalar OsgEarthNet.uav[48] simulationTime 3516.8277328573
scalar OsgEarthNet.uav[49] utilizationSecMission 580
scalar OsgEarthNet.uav[49] utilizationSecMaintenance 467.1303002674
scalar OsgEarthNet.uav[49] utilizationSecCharge 62.495753611797
scalar OsgEarthNet.uav[49] utilizationSecIdle 2407.2006789781
scalar OsgEarthNet.uav[49] utilizationEnergyMission 3177.9852867126
scalar OsgEarthNet.uav[49] utilizationEnergyMaintenance 2256.3462257385
scalar OsgEarthNet.uav[49] utilizationEnergyCharge 122.40937805176
scalar OsgEarthNet.uav[49] utilizationEnergyOverdrawMission 0
scalar OsgEarthNet.uav[49] utilizationEnergyOverdrawMaintenance 79.481346130371
scalar OsgEarthNet.uav[49] utilizationCountMissions 1
scalar OsgEarthNet.uav[49] utilizationCountManeuversMission 29
scalar OsgEarthNet.uav[49] utilizationCountManeuversMaintenance 2
scalar OsgEarthNet.uav[49] utilizationCountChargeState 1
scalar OsgEarthNet.uav[49] utilizationCountOverdrawnAfterMission 1
scalar OsgEarthNet.uav[49] utilizationCountIdleState 1
scalar OsgEarthNet.uav[49] utilizationFail 0
scalar OsgEarthNet.uav[49] simulationTime 3516.8277328573
scalar OsgEarthNet.uav[50] utilizationSecMission 0
scalar OsgEarthNet.uav[50] utilizationSecMaintenance 0
scalar OsgEarthNet.uav[50] utilizationSecCharge 0
scalar OsgEarthNet.uav[50] utilizationSecIdle 3516.8267328573
scalar OsgEarthNet.uav[50] utilizationEnergyMission 0
scalar OsgEarthNet.uav[50] utilizationEnergyMaintenance 0
scalar OsgEarthNet.uav[50] utilizationEnergyCharge 0
scalar OsgEarthNet.uav[50] utilizationEnergyOverdrawMission 0
scalar OsgEarthNet.uav[50] utilizationEnergyOverdrawMaintenance 0
scalar OsgEarthNet.uav[50] utilizationCountMissions 0
scalar OsgEarthNet.uav[50] utilizationCountManeuversMission 0
scalar OsgEarthNet.uav[50] utilizationCountManeuversMaintenance 0
scalar OsgEarthNet.uav[50] utilizationCountChargeState 0
scalar OsgEarthNet.uav[50] utilizationCountOverdrawnAfterMission 0
scalar OsgEarthNet.uav[50] utilizationCountIdleState 1
scalar OsgEarthNet.uav[50] utilizationFail 0
scalar OsgEarthNet.uav[50] simulationTime 3516.8277328573
scalar OsgEarthNet.uav[51] utilizationSecMission 698.45058753696
scalar OsgEarthNet.uav[51] utilizationSecMaintenance 321.40558798357
scalar OsgEarthNet.uav[51] utilizationSecCharge 623.69094527617
scalar OsgEarthNet.uav[51] utilizationSecIdle 1873.2796120606
scalar OsgEarthNet.uav[51] utilizationEnergyMission 3267.5396270752
scalar OsgEarthNet.uav[51] utilizationEnergyMaintenance 1694.797996521
scalar OsgEarthNet.uav[51] utilizationEnergyCharge 1057.7890625
scalar OsgEarthNet.uav[51] utilizationEnergyOverdrawMission 0
scalar OsgEarthNet.uav[51] utilizationEnergyOverdrawMaintenance 0
scalar OsgEarthNet.uav[51] utilizationCountMissions 1
scalar OsgEarthNet.uav[51] utilizationCountManeuversMission 11
scalar OsgEarthNet.uav[51] utilizationCountManeuversMaintenance 2
scalar OsgEarthNet.uav[51] utilizationCountChargeState 1
scalar OsgEarthNet.uav[51] utilizationCountOverdrawnAfterMission 0
scalar OsgEarthNet.uav[51] utilizationCountIdleState 1
scalar OsgEarthNet.uav[51] utilizationFail 0
scalar OsgEarthNet.uav[51] simulationTime 3516.8277328573
scalar OsgEarthNet.uav[52] utilizationSecMission 694.00169469977
scalar OsgEarthNet.uav[52] utilizationSecMaintenance 338.49695459722
scalar OsgEarthNet.uav[52] utilizationSecCharge 297.62272087998
scalar OsgEarthNet.uav[52] utilizationSecIdle 2186.7053626803
scalar OsgEarthNet.uav[52] utilizationEnergyMission 3274.8444900513
scalar OsgEarthNet.uav[52] utilizationEnergyMaintenance 1627.8725090027
scalar OsgEarthNet.uav[52] utilizationEnergyCharge 493.93008422852
scalar OsgEarthNet.uav[52] utilizationEnergyOverdrawMission 0
scalar OsgEarthNet.uav[52] utilizationEnergyOverdrawMaintenance 0
scalar OsgEarthNet.uav[52] utilizationCountMissions 1
scalar OsgEarthNet.uav[52] utilizationCountManeuversMission 13
scalar OsgEarthNet.uav[52] utilizationCountManeuversMaintenance 2
scalar OsgEarthNet.uav[52] utilizationCountChargeState 1
scalar OsgEarthNet.uav[52] utilizationCountOverdrawnAfterMission 0
scalar OsgEarthNet.uav[52] utilizationCountIdleState 1
scalar OsgEarthNet.uav[52] utilizationFail 0
scalar OsgEarthNet.uav[52] simulationTime 3516.8277328573
scalar OsgEarthNet.uav[53] utilizationSecMission 0
scalar OsgEarthNet.uav[53] utilizationSecMaintenance 0
scalar OsgEarthNet.uav[53] utilizationSecCharge 0
scalar OsgEarthNet.uav[53] utilizationSecIdle 3516.8267328573
scalar OsgEarthNet.uav[53] utilizationEnergyMission 0
scalar OsgEarthNet.uav[53] utilizationEnergyMaintenance 0
scalar OsgEarthNet.uav[53] utilizationEnergyCharge 0
scalar OsgEarthNet.uav[53] utilizationEnergyOverdrawMission 0
scalar OsgEarthNet.uav[53] utilizationEnergyOverdrawMaintenance 0
scalar OsgEarthNet.uav[53] utilizationCountMissions 0
scalar OsgEarthNet.uav[53] utilizationCountManeuversMission 0
scalar OsgEarthNet.uav[53] utilizationCountManeuversMaintenance 0
scalar OsgEarthNet.uav[53] utilizationCountChargeState 0
scalar OsgEarthNet.uav[53] utilizationCountOverdrawnAfterMission 0
scalar OsgEarthNet.uav[53] utilizationCountIdleState 1
scalar OsgEarthNet.uav[53] utilizationFail 0
scalar OsgEarthNet.uav[53] simulationTime 3516.8277328573
scalar OsgEarthNet.uav[54] utilizationSecMission 0
scalar OsgEarthNet.uav[54] utilizationSecMaintenance 0
scalar OsgEarthNet.uav[54] utilizationSecCharge 0
scalar OsgEarthNet.uav[54] utilizationSecIdle 3516.8267328573
scalar OsgEarthNet.uav[54] utilizationEnergyMission 0
scalar OsgEarthNet.uav[54] utilizationEnergyMaintenance 0
scalar OsgEarthNet.uav[54] utilizationEnergyCharge 0
scalar OsgEarthNet.uav[54] utilizationEnergyOverdrawMission 0
scalar OsgEarthNet.uav[54] utilizationEnergyOverdrawMaintenance 0
scalar OsgEarthNet.uav[54] utilizationCountMissions 0
scalar OsgEarthNet.uav[54] utilizationCountManeuversMission 0
scalar OsgEarthNet.uav[54] utilizationCountManeuversMaintenance 0
scalar OsgEarthNet.uav[54] utilizationCountChargeState 0
scalar OsgEarthNet.uav[54] utilizationCountOverdrawnAfterMission 0
scalar OsgEarthNet.uav[54] utilizationCountIdleState 1
scalar OsgEarthNet.uav[54] utilizationFail 0
scalar OsgEarthNet.uav[54] simulationTime 3516.8277328573
scalar OsgEarthNet.uav[55] utilizationSecMission 887.1741082606
scalar OsgEarthNet.uav[55] utilizationSecMaintenance 181.20511066264
scalar OsgEarthNet.uav[55] utilizationSecCharge 1559.2724035233
scalar OsgEarthNet.uav[55] utilizationSecIdle 889.17511041073
scalar OsgEarthNet.uav[55] utilizationEnergyMission 4080.1770782471
scalar OsgEarthNet.uav[55] utilizationEnergyMaintenance 759.67594528198
scalar OsgEarthNet.uav[55] utilizationEnergyCharge 2685.2297363281
scalar OsgEarthNet.uav[55] utilizationEnergyOverdrawMission 0
scalar OsgEarthNet.uav[55] utilizationEnergyOverdrawMaintenance 0
scalar OsgEarthNet.uav[55] utilizationCountMissions 1
scalar OsgEarthNet.uav[55] utilizationCountManeuversMission 14
scalar OsgEarthNet.uav[55] utilizationCountManeuversMaintenance 2
scalar OsgEarthNet.uav[55] utilizationCountChargeState 1
scalar OsgEarthNet.uav[55] utilizationCountOverdrawnAfterMission 0
scalar OsgEarthNet.uav[55] utilizationCountIdleState 1
scalar OsgEarthNet.uav[55] utilizationFail 0
scalar OsgEarthNet.uav[55] simulationTime 3516.8277328573
scalar OsgEarthNet.uav[56] utilizationSecMission 0
scalar OsgEarthNet.uav[56] utilizationSecMaintenance 0
scalar OsgEarthNet.uav[56] utilizationSecCharge 0
scalar OsgEarthNet.uav[56] utilizationSecIdle 3516.8267328573
scalar OsgEarthNet.uav[56] utilizationEnergyMission 0
scalar OsgEarthNet.uav[56] utilizationEnergyMaintenance 0
scalar OsgEarthNet.uav[56] utilizationEnergyCharge 0
scalar OsgEarthNet.uav[56] utilizationEnergyOverdrawMission 0
scalar OsgEarthNet.uav[56] utilizationEnergyOverdrawMaintenance 0
scalar OsgEarthNet.uav[56] utilizationCountMissions 0
scalar OsgEarthNet.uav[56] utilizationCountManeuversMission 0
scalar OsgEarthNet.uav[56] utilizationCountManeuversMaintenance 0
scalar OsgEarthNet.uav[56] utilizationCountChargeState 0
scalar OsgEarthNet.uav[56] utilizationCountOverdrawnAfterMission 0
scalar OsgEarthNet.uav[56] utilizationCountIdleState 1
scalar OsgEarthNet.uav[56] utilizationFail 0
scalar OsgEarthNet.uav[56] simulationTime 3516.8277328573
scalar OsgEarthNet.uav[57] utilizationSecMission 788.62919318667
scalar OsgEarthNet.uav[57] utilizationSecMaintenance 86.334528411505
scalar OsgEarthNet.uav[57] utilizationSecCharge 0
scalar OsgEarthNet.uav[57] utilizationSecIdle 2694.7036921006
scalar OsgEarthNet.uav[57] utilizationEnergyMission 3723.4769287109
scalar OsgEarthNet.uav[57] utilizationEnergyMaintenance 472.12952804565
scalar OsgEarthNet.uav[57] utilizationEnergyCharge 0
scalar OsgEarthNet.uav[57] utilizationEnergyOverdrawMission 0
scalar OsgEarthNet.uav[57] utilizationEnergyOverdrawMaintenance 0
scalar OsgEarthNet.uav[57] utilizationCountMissions 0
scalar OsgEarthNet.uav[57] utilizationCountManeuversMission 14
scalar OsgEarthNet.uav[57] utilizationCountManeuversMaintenance 1
scalar OsgEarthNet.uav[57] utilizationCountChargeState 0
scalar OsgEarthNet.uav[57] utilizationCountOverdrawnAfterMission 0
scalar OsgEarthNet.uav[57] utilizationCountIdleState 1
scalar OsgEarthNet.uav[57] utilizationFail 0
scalar OsgEarthNet.uav[57] simulationTime 3516.8277328573
scalar OsgEarthNet.uav[58] utilizationSecMission 0
scalar OsgEarthNet.uav[58] utilizationSecMaintenance 0
scalar OsgEarthNet.uav[58] utilizationSecCharge 0
scalar OsgEarthNet.uav[58] utilizationSecIdle 3516.8267328573
scalar OsgEarthNet.uav[58] utilizationEnergyMission 0
scalar OsgEarthNet.uav[58] utilizationEnergyMaintenance 0
scalar OsgEarthNet.uav[58] utilizationEnergyCharge 0
scalar OsgEarthNet.uav[58] utilizationEnergyOverdrawMission 0
scalar OsgEarthNet.uav[58] utilizationEnergyOverdrawMaintenance 0
scalar OsgEarthNet.uav[58] utilizationCountMissions 0
scalar OsgEarthNet.uav[58] utilizationCountManeuversMission 0
scalar OsgEarthNet.uav[58] utilizationCountManeuversMaintenance 0
scalar OsgEarthNet.uav[58] utilizationCountChargeState 0
scalar OsgEarthNet.uav[58] utilizationCountOverdrawnAfterMission 0
scalar OsgEarthNet.uav[58] utilizationCountIdleState 1
scalar OsgEarthNet.uav[58] utilizationFail 0
scalar OsgEarthNet.uav[58] simulationTime 3516.8277328573
scalar OsgEarthNet.uav[59] utilizationSecMission 0
scalar OsgEarthNet.uav[59] utilizationSecMaintenance 0
scalar OsgEarthNet.uav[59] utilizationSecCharge 0
scalar OsgEarthNet.uav[59] utilizationSecIdle 3516.8267328573
scalar OsgEarthNet.uav[59] utilizationEnergyMission 0
scalar OsgEarthNet.uav[59] utilizationEnergyMaintenance 0
scalar OsgEarthNet.uav[59] utilizationEnergyCharge 0
scalar OsgEarthNet.uav[59] utilizationEnergyOverdrawMission 0
scalar OsgEarthNet.uav[59] utilizationEnergyOverdrawMaintenance 0
scalar OsgEarthNet.uav[59] utilizationCountMissions 0
scalar OsgEarthNet.uav[59] utilizationCountManeuversMission 0
scalar OsgEarthNet.uav[59] utilizationCountManeuversMaintenance 0
scalar OsgEarthNet.uav[59] utilizationCountChargeState 0
scalar OsgEarthNet.uav[59] utilizationCountOverdrawnAfterMission 0
scalar OsgEarthNet.uav[59] utilizationCountIdleState 1
scalar OsgEarthNet.uav[59] utilizationFail 0
scalar OsgEarthNet.uav[59] simulationTime 3516.8277328573
scalar OsgEarthNet.uav[60] utilizationSecMission 0
scalar OsgEarthNet.uav[60] utilizationSecMaintenance 0
scalar OsgEarthNet.uav[60] utilizationSecCharge 0
scalar OsgEarthNet.uav[60] utilizationSecIdle 3516.8267328573
scalar OsgEarthNet.uav[60] utilizationEnergyMission 0
scalar OsgEarthNet.uav[60] utilizationEnergyMaintenance 0
scalar OsgEarthNet.uav[60] utilizationEnergyCharge 0
scalar OsgEarthNet.uav[60] utilizationEnergyOverdrawMission 0
scalar OsgEarthNet.uav[60] utilizationEnergyOverdrawMaintenance 0
scalar OsgEarthNet.uav[60] utilizationCountMissions 0
scalar OsgEarthNet.uav[60] utilizationCountManeuversMission 0
scalar OsgEarthNet.uav[60] utilizationCountManeuversMaintenance 0
scalar OsgEarthNet.uav[60] utilizationCountChargeState 0
scalar OsgEarthNet.uav[60] utilizationCountOverdrawnAfterMission 0
scalar OsgEarthNet.uav[60] utilizationCountIdleState 1
scalar OsgEarthNet.uav[60] utilizationFail 0
scalar OsgEarthNet.uav[60] simulationTime 3516.8277328573
scalar OsgEarthNet.uav[61] utilizationSecMission 640
scalar OsgEarthNet.uav[61] utilizationSecMaintenance 395.21104267299
scalar OsgEarthNet.uav[61] utilizationSecCharge 1079.6136901843
scalar OsgEarthNet.uav[61] utilizationSecIdle 1402.002
scalar OsgEarthNet.uav[61] utilizationEnergyMission 3559.0743942261
scalar OsgEarthNet.uav[61] utilizationEnergyMaintenance 1883.1611442566
scalar OsgEarthNet.uav[61] utilizationEnergyCharge 1876.7613525391
scalar OsgEarthNet.uav[61] utilizationEnergyOverdrawMission 0
scalar OsgEarthNet.uav[61] utilizationEnergyOverdrawMaintenance 31.276718139648
scalar OsgEarthNet.uav[61] utilizationCountMissions 1
scalar OsgEarthNet.uav[61] utilizationCountManeuversMission 32
scalar OsgEarthNet.uav[61] utilizationCountManeuversMaintenance 2
scalar OsgEarthNet.uav[61] utilizationCountChargeState 1
scalar OsgEarthNet.uav[61] utilizationCountOverdrawnAfterMission 1
scalar OsgEarthNet.uav[61] utilizationCountIdleState 1
scalar OsgEarthNet.uav[61] utilizationFail 0
scalar OsgEarthNet.uav[61] simulationTime 3516.8277328573
scalar OsgEarthNet.uav[62] utilizationSecMission 0
scalar OsgEarthNet.uav[62] utilizationSecMaintenance 0
scalar OsgEarthNet.uav[62] utilizationSecCharge 0
scalar OsgEarthNet.uav[62] utilizationSecIdle 3516.8267328573
scalar OsgEarthNet.uav[62] utilizationEnergyMission 0
scalar OsgEarthNet.uav[62] utilizationEnergyMaintenance 0
scalar OsgEarthNet.uav[62] utilizationEnergyCharge 0
scalar OsgEarthNet.uav[62] utilizationEnergyOverdrawMission 0
scalar OsgEarthNet.uav[62] utilizationEnergyOverdrawMaintenance 0
scalar OsgEarthNet.uav[62] utilizationCountMissions 0
scalar OsgEarthNet.uav[62] utilizationCountManeuversMission 0
scalar OsgEarthNet.uav[62] utilizationCountManeuversMaintenance 0
scalar OsgEarthNet.uav[62] utilizationCountChargeState 0
scalar OsgEarthNet.uav[62] utilizationCountOverdrawnAfterMission 0
scalar OsgEarthNet.uav[62] utilizationCountIdleState 1
scalar OsgEarthNet.uav[62] utilizationFail 0
scalar OsgEarthNet.uav[62] simulationTime 3516.8277328573
scalar OsgEarthNet.uav[63] utilizationSecMission 620
scalar OsgEarthNet.uav[63] utilizationSecMaintenance 447.1303002674
scalar OsgEarthNet.uav[63] utilizationSecCharge 2447.6964325899
scalar OsgEarthNet.uav[63] utilizationSecIdle 2
scalar OsgEarthNet.uav[63] utilizationEnergyMission 2865.5670776367
scalar OsgEarthNet.uav[63] utilizationEnergyMaintenance 2132.7681999206
scalar OsgEarthNet.uav[63] utilizationEnergyCharge 4286.005859375
scalar OsgEarthNet.uav[63] utilizationEnergyOverdrawMission 0
scalar OsgEarthNet.uav[63] utilizationEnergyOverdrawMaintenance 75.2705078125
scalar OsgEarthNet.uav[63] utilizationCountMissions 1
scalar OsgEarthNet.uav[63] utilizationCountManeuversMission 31
scalar OsgEarthNet.uav[63] utilizationCountManeuversMaintenance 2
scalar OsgEarthNet.uav[63] utilizationCountChargeState 1
scalar OsgEarthNet.uav[63] utilizationCountOverdrawnAfterMission 1
scalar OsgEarthNet.uav[63] utilizationCountIdleState 1
scalar OsgEarthNet.uav[63] utilizationFail 0
scalar OsgEarthNet.uav[63] simulationTime 3516.8277328573
scalar OsgEarthNet.uav[64] utilizationSecMission 620
scalar OsgEarthNet.uav[64] utilizationSecMaintenance 210.40347163387
scalar OsgEarthNet.uav[64] utilizationSecCharge 0
scalar OsgEarthNet.uav[64] utilizationSecIdle 2686.4232612234
scalar OsgEarthNet.uav[64] utilizationEnergyMission 3478.8465805054
scalar OsgEarthNet.uav[64] utilizationEnergyMaintenance 1044.150988056
scalar OsgEarthNet.uav[64] utilizationEnergyCharge 0
scalar OsgEarthNet.uav[64] utilizationEnergyOverdrawMission 0
scalar OsgEarthNet.uav[64] utilizationEnergyOverdrawMaintenance 0
scalar OsgEarthNet.uav[64] utilizationCountMissions 1
scalar OsgEarthNet.uav[64] utilizationCountManeuversMission 31
scalar OsgEarthNet.uav[64] utilizationCountManeuversMaintenance 2
scalar OsgEarthNet.uav[64] utilizationCountChargeState 0
scalar OsgEarthNet.uav[64] utilizationCountOverdrawnAfterMission 0
scalar OsgEarthNet.uav[64] utilizationCountIdleState 1
scalar OsgEarthNet.uav[64] utilizationFail 0
scalar OsgEarthNet.uav[64] simulationTime 3516.8277328573
scalar OsgEarthNet.uav[65] utilizationSecMission 640
scalar OsgEarthNet.uav[65] utilizationSecMaintenance 390.60696956236
scalar OsgEarthNet.uav[65] utilizationSecCharge 1756.3076207483
scalar OsgEarthNet.uav[65] utilizationSecIdle 729.91214254661
scalar OsgEarthNet.uav[65] utilizationEnergyMission 3352.5266418457
scalar OsgEarthNet.uav[65] utilizationEnergyMaintenance 2020.3181877136
scalar OsgEarthNet.uav[65] utilizationEnergyCharge 3014.0480957031
scalar OsgEarthNet.uav[65] utilizationEnergyOverdrawMission 0
scalar OsgEarthNet.uav[65] utilizationEnergyOverdrawMaintenance 40.009990692139
scalar OsgEarthNet.uav[65] utilizationCountMissions 1
scalar OsgEarthNet.uav[65] utilizationCountManeuversMission 32
scalar OsgEarthNet.uav[65] utilizationCountManeuversMaintenance 2
scalar OsgEarthNet.uav[65] utilizationCountChargeState 1
scalar OsgEarthNet.uav[65] utilizationCountOverdrawnAfterMission 1
scalar OsgEarthNet.uav[65] utilizationCountIdleState 1
scalar OsgEarthNet.uav[65] utilizationFail 0
scalar OsgEarthNet.uav[65] simulationTime 3516.8277328573
scalar OsgEarthNet.uav[66] utilizationSecMission 0
scalar OsgEarthNet.uav[66] utilizationSecMaintenance 0
scalar OsgEarthNet.uav[66] utilizationSecCharge 0
scalar OsgEarthNet.uav[66] utilizationSecIdle 3516.8267328573
scalar OsgEarthNet.uav[66] utilizationEnergyMission 0
scalar OsgEarthNet.uav[66] utilizationEnergyMaintenance 0
scalar OsgEarthNet.uav[66] utilizationEnergyCharge 0
scalar OsgEarthNet.uav[66] utilizationEnergyOverdrawMission 0
scalar OsgEarthNet.uav[66] utilizationEnergyOverdrawMaintenance 0
scalar OsgEarthNet.uav[66] utilizationCountMissions 0
scalar OsgEarthNet.uav[66] utilizationCountManeuversMission 0
scalar OsgEarthNet.uav[66] utilizationCountManeuversMaintenance 0
scalar OsgEarthNet.uav[66] utilizationCountChargeState 0
scalar OsgEarthNet.uav[66] utilizationCountOverdrawnAfterMission 0
scalar OsgEarthNet.uav[66] utilizationCountIdleState 1
scalar OsgEarthNet.uav[66] utilizationFail 0
scalar OsgEarthNet.uav[66] simulationTime 3516.8277328573
scalar OsgEarthNet.uav[67] utilizationSecMission 0
scalar OsgEarthNet.uav[67] utilizationSecMaintenance 0
scalar OsgEarthNet.uav[67] utilizationSecCharge 0
scalar OsgEarthNet.uav[67] utilizationSecIdle 3516.8267328573
scalar OsgEarthNet.uav[67] utilizationEnergyMission 0
scalar OsgEarthNet.uav[67] utilizationEnergyMaintenance 0
scalar OsgEarthNet.uav[67] utilizationEnergyCharge 0
scalar OsgEarthNet.uav[67] utilizationEnergyOverdrawMission 0
scalar OsgEarthNet.uav[67] utilizationEnergyOverdrawMaintenance 0
scalar OsgEarthNet.uav[67] utilizationCountMissions 0
scalar OsgEarthNet.uav[67] utilizationCountManeuversMission 0
scalar OsgEarthNet.uav[67] utilizationCountManeuversMaintenance 0
scalar OsgEarthNet.uav[67] utilizationCountChargeState 0
scalar OsgEarthNet.uav[67] utilizationCountOverdrawnAfterMission 0
scalar OsgEarthNet.uav[67] utilizationCountIdleState 1
scalar OsgEarthNet.uav[67] utilizationFail 0
scalar OsgEarthNet.uav[67] simulationTime 3516.8277328573
scalar OsgEarthNet.uav[68] utilizationSecMission 0
scalar OsgEarthNet.uav[68] utilizationSecMaintenance 0
scalar OsgEarthNet.uav[68] utilizationSecCharge 0
[...]
scalar OsgEarthNet.uav[80] utilizationCountChargeState 0
scalar OsgEarthNet.uav[80] utilizationCountOverdrawnAfterMission 0
scalar OsgEarthNet.uav[80] utilizationCountIdleState 1
scalar OsgEarthNet.uav[80] utilizationFail 0
scalar OsgEarthNet.uav[80] simulationTime 3516.8277328573
scalar OsgEarthNet.uav[81] utilizationSecMission 0
scalar OsgEarthNet.uav[81] utilizationSecMaintenance 0
scalar OsgEarthNet.uav[81] utilizationSecCharge 0
scalar OsgEarthNet.uav[81] utilizationSecIdle 3516.8267328573
scalar OsgEarthNet.uav[81] utilizationEnergyMission 0
scalar OsgEarthNet.uav[81] utilizationEnergyMaintenance 0
scalar OsgEarthNet.uav[81] utilizationEnergyCharge 0
scalar OsgEarthNet.uav[81] utilizationEnergyOverdrawMission 0
scalar OsgEarthNet.uav[81] utilizationEnergyOverdrawMaintenance 0
scalar OsgEarthNet.uav[81] utilizationCountMissions 0
scalar OsgEarthNet.uav[81] utilizationCountManeuversMission 0
scalar OsgEarthNet.uav[81] utilizationCountManeuversMaintenance 0
scalar OsgEarthNet.uav[81] utilizationCountChargeState 0
scalar OsgEarthNet.uav[81] utilizationCountOverdrawnAfterMission 0
scalar OsgEarthNet.uav[81] utilizationCountIdleState 1
scalar OsgEarthNet.uav[81] utilizationFail 0
scalar OsgEarthNet.uav[81] simulationTime 3516.8277328573
scalar OsgEarthNet.uav[82] utilizationSecMission 246.17697399176
scalar OsgEarthNet.uav[82] utilizationSecMaintenance 124.32237943275
scalar OsgEarthNet.uav[82] utilizationSecCharge 0
scalar OsgEarthNet.uav[82] utilizationSecIdle 3146.3273794327
scalar OsgEarthNet.uav[82] utilizationEnergyMission 1274.6171611173
scalar OsgEarthNet.uav[82] utilizationEnergyMaintenance 570.9892578125
scalar OsgEarthNet.uav[82] utilizationEnergyCharge 0
scalar OsgEarthNet.uav[82] utilizationEnergyOverdrawMission 0
scalar OsgEarthNet.uav[82] utilizationEnergyOverdrawMaintenance 0
scalar OsgEarthNet.uav[82] utilizationCountMissions 0
scalar OsgEarthNet.uav[82] utilizationCountManeuversMission 13
scalar OsgEarthNet.uav[82] utilizationCountManeuversMaintenance 1
scalar OsgEarthNet.uav[82] utilizationCountChargeState 0
scalar OsgEarthNet.uav[82] utilizationCountOverdrawnAfterMission 0
scalar OsgEarthNet.uav[82] utilizationCountIdleState 1
scalar OsgEarthNet.uav[82] utilizationFail 0
scalar OsgEarthNet.uav[82] simulationTime 3516.8277328573
scalar OsgEarthNet.uav[83] utilizationSecMission 936.1377972582
scalar OsgEarthNet.uav[83] utilizationSecMaintenance 169.34255383421
scalar OsgEarthNet.uav[83] utilizationSecCharge 2409.3463817648
scalar OsgEarthNet.uav[83] utilizationSecIdle 2
scalar OsgEarthNet.uav[83] utilizationEnergyMission 4033.774941667
scalar OsgEarthNet.uav[83] utilizationEnergyMaintenance 773.32935714722
scalar OsgEarthNet.uav[83] utilizationEnergyCharge 4185.3540039062
scalar OsgEarthNet.uav[83] utilizationEnergyOverdrawMission 0
scalar OsgEarthNet.uav[83] utilizationEnergyOverdrawMaintenance 0
scalar OsgEarthNet.uav[83] utilizationCountMissions 1
scalar OsgEarthNet.uav[83] utilizationCountManeuversMission 12
scalar OsgEarthNet.uav[83] utilizationCountManeuversMaintenance 1
scalar OsgEarthNet.uav[83] utilizationCountChargeState 1
scalar OsgEarthNet.uav[83] utilizationCountOverdrawnAfterMission 0
scalar OsgEarthNet.uav[83] utilizationCountIdleState 1
scalar OsgEarthNet.uav[83] utilizationFail 0
scalar OsgEarthNet.uav[83] simulationTime 3516.8277328573
scalar OsgEarthNet.uav[84] utilizationSecMission 0
scalar OsgEarthNet.uav[84] utilizationSecMaintenance 0
scalar OsgEarthNet.uav[84] utilizationSecCharge 0
scalar OsgEarthNet.uav[84] utilizationSecIdle 3516.8267328573
scalar OsgEarthNet.uav[84] utilizationEnergyMission 0
scalar OsgEarthNet.uav[84] utilizationEnergyMaintenance 0
scalar OsgEarthNet.uav[84] utilizationEnergyCharge 0
scalar OsgEarthNet.uav[84] utilizationEnergyOverdrawMission 0
scalar OsgEarthNet.uav[84] utilizationEnergyOverdrawMaintenance 0
scalar OsgEarthNet.uav[84] utilizationCountMissions 0
scalar OsgEarthNet.uav[84] utilizationCountManeuversMission 0
scalar OsgEarthNet.uav[84] utilizationCountManeuversMaintenance 0
scalar OsgEarthNet.uav[84] utilizationCountChargeState 0
scalar OsgEarthNet.uav[84] utilizationCountOverdrawnAfterMission 0
scalar OsgEarthNet.uav[84] utilizationCountIdleState 1
scalar OsgEarthNet.uav[84] utilizationFail 0
scalar OsgEarthNet.uav[84] simulationTime 3516.8277328573
scalar OsgEarthNet.uav[85] utilizationSecMission 660
scalar OsgEarthNet.uav[85] utilizationSecMaintenance 410.60696956236
scalar OsgEarthNet.uav[85] utilizationSecCharge 428.39447820168
scalar OsgEarthNet.uav[85] utilizationSecIdle 2017.8252850932
scalar OsgEarthNet.uav[85] utilizationEnergyMission 3255.5628471375
scalar OsgEarthNet.uav[85] utilizationEnergyMaintenance 1989.9249000549
scalar OsgEarthNet.uav[85] utilizationEnergyCharge 714.74353027344
scalar OsgEarthNet.uav[85] utilizationEnergyOverdrawMission 0
scalar OsgEarthNet.uav[85] utilizationEnergyOverdrawMaintenance 140.17782592773
scalar OsgEarthNet.uav[85] utilizationCountMissions 1
scalar OsgEarthNet.uav[85] utilizationCountManeuversMission 33
scalar OsgEarthNet.uav[85] utilizationCountManeuversMaintenance 2
scalar OsgEarthNet.uav[85] utilizationCountChargeState 1
scalar OsgEarthNet.uav[85] utilizationCountOverdrawnAfterMission 1
scalar OsgEarthNet.uav[85] utilizationCountIdleState 1
scalar OsgEarthNet.uav[85] utilizationFail 0
scalar OsgEarthNet.uav[85] simulationTime 3516.8277328573
scalar OsgEarthNet.uav[86] utilizationSecMission 0
scalar OsgEarthNet.uav[86] utilizationSecMaintenance 0
scalar OsgEarthNet.uav[86] utilizationSecCharge 0
scalar OsgEarthNet.uav[86] utilizationSecIdle 3516.8267328573
scalar OsgEarthNet.uav[86] utilizationEnergyMission 0
scalar OsgEarthNet.uav[86] utilizationEnergyMaintenance 0
scalar OsgEarthNet.uav[86] utilizationEnergyCharge 0
scalar OsgEarthNet.uav[86] utilizationEnergyOverdrawMission 0
scalar OsgEarthNet.uav[86] utilizationEnergyOverdrawMaintenance 0
scalar OsgEarthNet.uav[86] utilizationCountMissions 0
scalar OsgEarthNet.uav[86] utilizationCountManeuversMission 0
scalar OsgEarthNet.uav[86] utilizationCountManeuversMaintenance 0
scalar OsgEarthNet.uav[86] utilizationCountChargeState 0
scalar OsgEarthNet.uav[86] utilizationCountOverdrawnAfterMission 0
scalar OsgEarthNet.uav[86] utilizationCountIdleState 1
scalar OsgEarthNet.uav[86] utilizationFail 0
scalar OsgEarthNet.uav[86] simulationTime 3516.8277328573
scalar OsgEarthNet.uav[87] utilizationSecMission 0
scalar OsgEarthNet.uav[87] utilizationSecMaintenance 0
scalar OsgEarthNet.uav[87] utilizationSecCharge 0
scalar OsgEarthNet.uav[87] utilizationSecIdle 3516.8267328573
scalar OsgEarthNet.uav[87] utilizationEnergyMission 0
scalar OsgEarthNet.uav[87] utilizationEnergyMaintenance 0
scalar OsgEarthNet.uav[87] utilizationEnergyCharge 0
scalar OsgEarthNet.uav[87] utilizationEnergyOverdrawMission 0
scalar OsgEarthNet.uav[87] utilizationEnergyOverdrawMaintenance 0
scalar OsgEarthNet.uav[87] utilizationCountMissions 0
scalar OsgEarthNet.uav[87] utilizationCountManeuversMission 0
scalar OsgEarthNet.uav[87] utilizationCountManeuversMaintenance 0
scalar OsgEarthNet.uav[87] utilizationCountChargeState 0
scalar OsgEarthNet.uav[87] utilizationCountOverdrawnAfterMission 0
scalar OsgEarthNet.uav[87] utilizationCountIdleState 1
scalar OsgEarthNet.uav[87] utilizationFail 0
scalar OsgEarthNet.uav[87] simulationTime 3516.8277328573
scalar OsgEarthNet.uav[88] utilizationSecMission 820
scalar OsgEarthNet.uav[88] utilizationSecMaintenance 262.82841927123
scalar OsgEarthNet.uav[88] utilizationSecCharge 1651.997313586
scalar OsgEarthNet.uav[88] utilizationSecIdle 782.001
scalar OsgEarthNet.uav[88] utilizationEnergyMission 3757.1835632324
scalar OsgEarthNet.uav[88] utilizationEnergyMaintenance 1060.7172050476
scalar OsgEarthNet.uav[88] utilizationEnergyCharge 2835.2297363281
scalar OsgEarthNet.uav[88] utilizationEnergyOverdrawMission 0
scalar OsgEarthNet.uav[88] utilizationEnergyOverdrawMaintenance 0
scalar OsgEarthNet.uav[88] utilizationCountMissions 1
scalar OsgEarthNet.uav[88] utilizationCountManeuversMission 41
scalar OsgEarthNet.uav[88] utilizationCountManeuversMaintenance 2
scalar OsgEarthNet.uav[88] utilizationCountChargeState 1
scalar OsgEarthNet.uav[88] utilizationCountOverdrawnAfterMission 0
scalar OsgEarthNet.uav[88] utilizationCountIdleState 1
scalar OsgEarthNet.uav[88] utilizationFail 0
scalar OsgEarthNet.uav[88] simulationTime 3516.8277328573
scalar OsgEarthNet.uav[89] utilizationSecMission 750.20472747826
scalar OsgEarthNet.uav[89] utilizationSecMaintenance 355.27562361416
scalar OsgEarthNet.uav[89] utilizationSecCharge 908.9349102134
scalar OsgEarthNet.uav[89] utilizationSecIdle 1502.4114715514
scalar OsgEarthNet.uav[89] utilizationEnergyMission 3386.4473114014
scalar OsgEarthNet.uav[89] utilizationEnergyMaintenance 1703.0591545105
scalar OsgEarthNet.uav[89] utilizationEnergyCharge 1553.439453125
scalar OsgEarthNet.uav[89] utilizationEnergyOverdrawMission 0
scalar OsgEarthNet.uav[89] utilizationEnergyOverdrawMaintenance 0
scalar OsgEarthNet.uav[89] utilizationCountMissions 1
scalar OsgEarthNet.uav[89] utilizationCountManeuversMission 11
scalar OsgEarthNet.uav[89] utilizationCountManeuversMaintenance 2
scalar OsgEarthNet.uav[89] utilizationCountChargeState 1
scalar OsgEarthNet.uav[89] utilizationCountOverdrawnAfterMission 0
scalar OsgEarthNet.uav[89] utilizationCountIdleState 1
scalar OsgEarthNet.uav[89] utilizationFail 0
scalar OsgEarthNet.uav[89] simulationTime 3516.8277328573
scalar OsgEarthNet.uav[90] utilizationSecMission 580
scalar OsgEarthNet.uav[90] utilizationSecMaintenance 447.1303002674
scalar OsgEarthNet.uav[90] utilizationSecCharge 1242.4977536118
scalar OsgEarthNet.uav[90] utilizationSecIdle 1247.1986789781
scalar OsgEarthNet.uav[90] utilizationEnergyMission 3041.069393158
scalar OsgEarthNet.uav[90] utilizationEnergyMaintenance 2054.9508171081
scalar OsgEarthNet.uav[90] utilizationEnergyCharge 2190.5295410156
scalar OsgEarthNet.uav[90] utilizationEnergyOverdrawMission 0
scalar OsgEarthNet.uav[90] utilizationEnergyOverdrawMaintenance 60.532653808594
scalar OsgEarthNet.uav[90] utilizationCountMissions 1
scalar OsgEarthNet.uav[90] utilizationCountManeuversMission 29
scalar OsgEarthNet.uav[90] utilizationCountManeuversMaintenance 2
scalar OsgEarthNet.uav[90] utilizationCountChargeState 1
scalar OsgEarthNet.uav[90] utilizationCountOverdrawnAfterMission 1
scalar OsgEarthNet.uav[90] utilizationCountIdleState 1
scalar OsgEarthNet.uav[90] utilizationFail 0
scalar OsgEarthNet.uav[90] simulationTime 3516.8277328573
scalar OsgEarthNet.uav[91] utilizationSecMission 0
scalar OsgEarthNet.uav[91] utilizationSecMaintenance 0
scalar OsgEarthNet.uav[91] utilizationSecCharge 0
scalar OsgEarthNet.uav[91] utilizationSecIdle 3516.8267328573
scalar OsgEarthNet.uav[91] utilizationEnergyMission 0
scalar OsgEarthNet.uav[91] utilizationEnergyMaintenance 0
scalar OsgEarthNet.uav[91] utilizationEnergyCharge 0
scalar OsgEarthNet.uav[91] utilizationEnergyOverdrawMission 0
scalar OsgEarthNet.uav[91] utilizationEnergyOverdrawMaintenance 0
scalar OsgEarthNet.uav[91] utilizationCountMissions 0
scalar OsgEarthNet.uav[91] utilizationCountManeuversMission 0
scalar OsgEarthNet.uav[91] utilizationCountManeuversMaintenance 0
scalar OsgEarthNet.uav[91] utilizationCountChargeState 0
scalar OsgEarthNet.uav[91] utilizationCountOverdrawnAfterMission 0
scalar OsgEarthNet.uav[91] utilizationCountIdleState 1
scalar OsgEarthNet.uav[91] utilizationFail 0
scalar OsgEarthNet.uav[91] simulationTime 3516.8277328573
scalar OsgEarthNet.uav[92] utilizationSecMission 0
scalar OsgEarthNet.uav[92] utilizationSecMaintenance 0
scalar OsgEarthNet.uav[92] utilizationSecCharge 0
scalar OsgEarthNet.uav[92] utilizationSecIdle 3516.8267328573
scalar OsgEarthNet.uav[92] utilizationEnergyMission 0
scalar OsgEarthNet.uav[92] utilizationEnergyMaintenance 0
scalar OsgEarthNet.uav[92] utilizationEnergyCharge 0
scalar OsgEarthNet.uav[92] utilizationEnergyOverdrawMission 0
scalar OsgEarthNet.uav[92] utilizationEnergyOverdrawMaintenance 0
scalar OsgEarthNet.uav[92] utilizationCountMissions 0
scalar OsgEarthNet.uav[92] utilizationCountManeuversMission 0
scalar OsgEarthNet.uav[92] utilizationCountManeuversMaintenance 0
scalar OsgEarthNet.uav[92] utilizationCountChargeState 0
scalar OsgEarthNet.uav[92] utilizationCountOverdrawnAfterMission 0
scalar OsgEarthNet.uav[92] utilizationCountIdleState 1
scalar OsgEarthNet.uav[92] utilizationFail 0
scalar OsgEarthNet.uav[92] simulationTime 3516.8277328573
scalar OsgEarthNet.uav[93] utilizationSecMission 344.42937490114
scalar OsgEarthNet.uav[93] utilizationSecMaintenance 165.19567897806
scalar OsgEarthNet.uav[93] utilizationSecCharge 0
scalar OsgEarthNet.uav[93] utilizationSecIdle 3007.2016789781
scalar OsgEarthNet.uav[93] utilizationEnergyMission 1785.9280323995
scalar OsgEarthNet.uav[93] utilizationEnergyMaintenance 847.29656982422
scalar OsgEarthNet.uav[93] utilizationEnergyCharge 0
scalar OsgEarthNet.uav[93] utilizationEnergyOverdrawMission 0
scalar OsgEarthNet.uav[93] utilizationEnergyOverdrawMaintenance 0
scalar OsgEarthNet.uav[93] utilizationCountMissions 0
scalar OsgEarthNet.uav[93] utilizationCountManeuversMission 18
scalar OsgEarthNet.uav[93] utilizationCountManeuversMaintenance 1
scalar OsgEarthNet.uav[93] utilizationCountChargeState 0
scalar OsgEarthNet.uav[93] utilizationCountOverdrawnAfterMission 0
scalar OsgEarthNet.uav[93] utilizationCountIdleState 1
scalar OsgEarthNet.uav[93] utilizationFail 0
scalar OsgEarthNet.uav[93] simulationTime 3516.8277328573
scalar OsgEarthNet.uav[94] utilizationSecMission 0
scalar OsgEarthNet.uav[94] utilizationSecMaintenance 0
scalar OsgEarthNet.uav[94] utilizationSecCharge 0
scalar OsgEarthNet.uav[94] utilizationSecIdle 3516.8267328573
scalar OsgEarthNet.uav[94] utilizationEnergyMission 0
scalar OsgEarthNet.uav[94] utilizationEnergyMaintenance 0
scalar OsgEarthNet.uav[94] utilizationEnergyCharge 0
scalar OsgEarthNet.uav[94] utilizationEnergyOverdrawMission 0
scalar OsgEarthNet.uav[94] utilizationEnergyOverdrawMaintenance 0
scalar OsgEarthNet.uav[94] utilizationCountMissions 0
scalar OsgEarthNet.uav[94] utilizationCountManeuversMission 0
scalar OsgEarthNet.uav[94] utilizationCountManeuversMaintenance 0
scalar OsgEarthNet.uav[94] utilizationCountChargeState 0
scalar OsgEarthNet.uav[94] utilizationCountOverdrawnAfterMission 0
scalar OsgEarthNet.uav[94] utilizationCountIdleState 1
scalar OsgEarthNet.uav[94] utilizationFail 0
scalar OsgEarthNet.uav[94] simulationTime 3516.8277328573
scalar OsgEarthNet.uav[95] utilizationSecMission 694.00169469977
scalar OsgEarthNet.uav[95] utilizationSecMaintenance 338.49695459722
scalar OsgEarthNet.uav[95] utilizationSecCharge 991.62541570443
scalar OsgEarthNet.uav[95] utilizationSecIdle 1492.7026678558
scalar OsgEarthNet.uav[95] utilizationEnergyMission 3173.9979629517
scalar OsgEarthNet.uav[95] utilizationEnergyMaintenance 1557.5225334167
scalar OsgEarthNet.uav[95] utilizationEnergyCharge 1691.0178222656
scalar OsgEarthNet.uav[95] utilizationEnergyOverdrawMission 0
scalar OsgEarthNet.uav[95] utilizationEnergyOverdrawMaintenance 0
scalar OsgEarthNet.uav[95] utilizationCountMissions 1
scalar OsgEarthNet.uav[95] utilizationCountManeuversMission 13
scalar OsgEarthNet.uav[95] utilizationCountManeuversMaintenance 2
scalar OsgEarthNet.uav[95] utilizationCountChargeState 1
scalar OsgEarthNet.uav[95] utilizationCountOverdrawnAfterMission 0
scalar OsgEarthNet.uav[95] utilizationCountIdleState 1
scalar OsgEarthNet.uav[95] utilizationFail 0
scalar OsgEarthNet.uav[95] simulationTime 3516.8277328573
scalar OsgEarthNet.uav[96] utilizationSecMission 0
scalar OsgEarthNet.uav[96] utilizationSecMaintenance 0
scalar OsgEarthNet.uav[96] utilizationSecCharge 0
scalar OsgEarthNet.uav[96] utilizationSecIdle 3516.8267328573
scalar OsgEarthNet.uav[96] utilizationEnergyMission 0
scalar OsgEarthNet.uav[96] utilizationEnergyMaintenance 0
scalar OsgEarthNet.uav[96] utilizationEnergyCharge 0
scalar OsgEarthNet.uav[96] utilizationEnergyOverdrawMission 0
scalar OsgEarthNet.uav[96] utilizationEnergyOverdrawMaintenance 0
scalar OsgEarthNet.uav[96] utilizationCountMissions 0
scalar OsgEarthNet.uav[96] utilizationCountManeuversMission 0
scalar OsgEarthNet.uav[96] utilizationCountManeuversMaintenance 0
scalar OsgEarthNet.uav[96] utilizationCountChargeState 0
scalar OsgEarthNet.uav[96] utilizationCountOverdrawnAfterMission 0
scalar OsgEarthNet.uav[96] utilizationCountIdleState 1
scalar OsgEarthNet.uav[96] utilizationFail 0
scalar OsgEarthNet.uav[96] simulationTime 3516.8277328573
scalar OsgEarthNet.uav[97] utilizationSecMission 0
scalar OsgEarthNet.uav[97] utilizationSecMaintenance 0
scalar OsgEarthNet.uav[97] utilizationSecCharge 0
scalar OsgEarthNet.uav[97] utilizationSecIdle 3516.8267328573
scalar OsgEarthNet.uav[97] utilizationEnergyMission 0
scalar OsgEarthNet.uav[97] utilizationEnergyMaintenance 0
scalar OsgEarthNet.uav[97] utilizationEnergyCharge 0
scalar OsgEarthNet.uav[97] utilizationEnergyOverdrawMission 0
scalar OsgEarthNet.uav[97] utilizationEnergyOverdrawMaintenance 0
scalar OsgEarthNet.uav[97] utilizationCountMissions 0
scalar OsgEarthNet.uav[97] utilizationCountManeuversMission 0
scalar OsgEarthNet.uav[97] utilizationCountManeuversMaintenance 0
scalar OsgEarthNet.uav[97] utilizationCountChargeState 0
scalar OsgEarthNet.uav[97] utilizationCountOverdrawnAfterMission 0
scalar OsgEarthNet.uav[97] utilizationCountIdleState 1
scalar OsgEarthNet.uav[97] utilizationFail 0
scalar OsgEarthNet.uav[97] simulationTime 3516.8277328573
scalar OsgEarthNet.uav[98] utilizationSecMission 0
scalar OsgEarthNet.uav[98] utilizationSecMaintenance 0
scalar OsgEarthNet.uav[98] utilizationSecCharge 0
scalar OsgEarthNet.uav[98] utilizationSecIdle 3516.8267328573
scalar OsgEarthNet.uav[98] utilizationEnergyMission 0
scalar OsgEarthNet.uav[98] utilizationEnergyMaintenance 0
scalar OsgEarthNet.uav[98] utilizationEnergyCharge 0
scalar OsgEarthNet.uav[98] utilizationEnergyOverdrawMission 0
scalar OsgEarthNet.uav[98] utilizationEnergyOverdrawMaintenance 0
scalar OsgEarthNet.uav[98] utilizationCountMissions 0
scalar OsgEarthNet.uav[98] utilizationCountManeuversMission 0
scalar OsgEarthNet.uav[98] utilizationCountManeuversMaintenance 0
scalar OsgEarthNet.uav[98] utilizationCountChargeState 0
scalar OsgEarthNet.uav[98] utilizationCountOverdrawnAfterMission 0
scalar OsgEarthNet.uav[98] utilizationCountIdleState 1
scalar OsgEarthNet.uav[98] utilizationFail 0
scalar OsgEarthNet.uav[98] simulationTime 3516.8277328573
scalar OsgEarthNet.uav[99] utilizationSecMission 0
scalar OsgEarthNet.uav[99] utilizationSecMaintenance 0
scalar OsgEarthNet.uav[99] utilizationSecCharge 0
scalar OsgEarthNet.uav[99] utilizationSecIdle 3516.8267328573
scalar OsgEarthNet.uav[99] utilizationEnergyMission 0
scalar OsgEarthNet.uav[99] utilizationEnergyMaintenance 0
scalar OsgEarthNet.uav[99] utilizationEnergyCharge 0
scalar OsgEarthNet.uav[99] utilizationEnergyOverdrawMission 0
scalar OsgEarthNet.uav[99] utilizationEnergyOverdrawMaintenance 0
scalar OsgEarthNet.uav[99] utilizationCountMissions 0
scalar OsgEarthNet.uav[99] utilizationCountManeuversMission 0
scalar OsgEarthNet.uav[99] utilizationCountManeuversMaintenance 0
scalar OsgEarthNet.uav[99] utilizationCountChargeState 0
scalar OsgEarthNet.uav[99] utilizationCountOverdrawnAfterMission 0
scalar OsgEarthNet.uav[99] utilizationCountIdleState 1
scalar OsgEarthNet.uav[99] utilizationFail 0
scalar OsgEarthNet.uav[99] simulationTime 3516.8277328573
scalar OsgEarthNet.cs[0] usedPower 22747.482354389
scalar OsgEarthNet.cs[0] chargedPower 22747.482354389
scalar OsgEarthNet.cs[0] chargedMobileNodes 0
scalar OsgEarthNet.cs[0] reservations 10
scalar OsgEarthNet.cs[1] usedPower 17093.410457003
scalar OsgEarthNet.cs[1] chargedPower 17093.410457003
scalar OsgEarthNet.cs[1] chargedMobileNodes 0
scalar OsgEarthNet.cs[1] reservations 8
scalar OsgEarthNet.cs[2] usedPower 45052.92886539
scalar OsgEarthNet.cs[2] chargedPower 45052.92886539
scalar OsgEarthNet.cs[2] chargedMobileNodes 0
scalar OsgEarthNet.cs[2] reservations 20

