version 2
run Szenario_Hotel_Gabelbach-71-20180707-23:57:04-8424
attr configname Szenario_Hotel_Gabelbach
attr datetime 20180707-23:57:04
attr experiment Szenario_Hotel_Gabelbach
attr inifile omnetpp.ini
attr iterationvars "$quant=0.95, $replM=0"
attr iterationvarsf quant=0.95,replM=0-
attr measurement "$quant=0.95, $replM=0"
attr network OsgEarthNet
attr processid 8424
attr repetition 23
attr replication #23
attr resultdir results
attr runnumber 71
attr seedset 71
itervar quant 0.95
itervar replM 0
param *.osgEarthScene.scene "\"Szenario_Hotel_Gabelbach.earth\""
param *.playgroundLatitude 50.6830269
param *.playgroundLongitude 10.8538055
param *.playgroundWidth 3500m
param *.playgroundHeight 3500m
param *.numCSs 3
param *.numUAVs 100
param *.cs[0].posX 3537m
param *.cs[0].posY 965m
param *.cs[0].posZ 538m
param *.cs[1].posX 312m
param *.cs[1].posY 1262m
param *.cs[1].posZ 539m
param *.cs[2].posX 2185m
param *.cs[2].posY 3026m
param *.cs[2].posZ 777m
param *.uav[*].predictionQuantile 0.95
param *.uav[*].replacementMethod 0
param *.*.timeStep 10s
param *.uav[*].commandPreviewCommandCount 20
param *.missionControl.missionFiles "\"missions\\\\Szenario_WB_Hotel_Gabelbach_Mission_Hotel.waypoints,missions\\\\Szenario_WB_Hotel_Gabelbach_Mission_Kickelhahn.waypoints,missions\\\\Szenario_WB_Hotel_Gabelbach_Mission_Ilmenau_Sportplatz.waypoints,missions\\\\Szenario_WB_Hotel_Gabelbach_Mission_Manebach_Mitte.waypoints,missions\\\\Szenario_WB_Hotel_Gabelbach_Mission_Manebach_Sued.waypoints,missions\\\\Szenario_WB_Hotel_Gabelbach_Hover_HoheSchlaufe.waypoints,missions\\\\Szenario_WB_Hotel_Gabelbach_Hover_Kickelhahn.waypoints,missions\\\\Szenario_WB_Hotel_Gabelbach_Hover_Gabelbachskopf.waypoints,missions\\\\Szenario_WB_Hotel_Gabelbach_Hover_Dachskopf.waypoints\""
param *.uav[0].startX 3537m
param *.uav[0].startY 965m
param *.uav[0].startZ 539m
param *.uav[1].startX 312m
param *.uav[1].startY 1262m
param *.uav[1].startZ 540m
param *.uav[2].startX 2185m
param *.uav[2].startY 3026m
param *.uav[2].startZ 778m
param *.uav[3].startX 3537m
param *.uav[3].startY 965m
param *.uav[3].startZ 539m
param *.uav[4].startX 312m
param *.uav[4].startY 1262m
param *.uav[4].startZ 540m
param *.uav[5].startX 2185m
param *.uav[5].startY 3026m
param *.uav[5].startZ 778m
param *.uav[6].startX 3537m
param *.uav[6].startY 965m
param *.uav[6].startZ 539m
param *.uav[7].startX 312m
param *.uav[7].startY 1262m
param *.uav[7].startZ 540m
param *.uav[8].startX 2185m
param *.uav[8].startY 3026m
param *.uav[8].startZ 778m
param *.uav[9].startX 3537m
param *.uav[9].startY 965m
param *.uav[9].startZ 539m
param *.uav[10].startX 3537m
param *.uav[10].startY 965m
param *.uav[10].startZ 539m
param *.uav[11].startX 312m
param *.uav[11].startY 1262m
param *.uav[11].startZ 540m
param *.uav[12].startX 2185m
param *.uav[12].startY 3026m
param *.uav[12].startZ 778m
param *.uav[13].startX 3537m
param *.uav[13].startY 965m
param *.uav[13].startZ 539m
param *.uav[14].startX 312m
param *.uav[14].startY 1262m
param *.uav[14].startZ 540m
param *.uav[15].startX 2185m
param *.uav[15].startY 3026m
param *.uav[15].startZ 778m
param *.uav[16].startX 3537m
param *.uav[16].startY 965m
param *.uav[16].startZ 539m
param *.uav[17].startX 312m
param *.uav[17].startY 1262m
param *.uav[17].startZ 540m
param *.uav[18].startX 2185m
param *.uav[18].startY 3026m
param *.uav[18].startZ 778m
param *.uav[19].startX 3537m
param *.uav[19].startY 965m
param *.uav[19].startZ 539m
param *.uav[20].startX 3537m
param *.uav[20].startY 965m
param *.uav[20].startZ 539m
param *.uav[21].startX 312m
param *.uav[21].startY 1262m
param *.uav[21].startZ 540m
param *.uav[22].startX 2185m
param *.uav[22].startY 3026m
param *.uav[22].startZ 778m
param *.uav[23].startX 3537m
param *.uav[23].startY 965m
param *.uav[23].startZ 539m
param *.uav[24].startX 312m
param *.uav[24].startY 1262m
param *.uav[24].startZ 540m
param *.uav[25].startX 2185m
param *.uav[25].startY 3026m
param *.uav[25].startZ 778m
param *.uav[26].startX 3537m
param *.uav[26].startY 965m
param *.uav[26].startZ 539m
param *.uav[27].startX 312m
param *.uav[27].startY 1262m
param *.uav[27].startZ 540m
param *.uav[28].startX 2185m
param *.uav[28].startY 3026m
param *.uav[28].startZ 778m
param *.uav[29].startX 3537m
param *.uav[29].startY 965m
param *.uav[29].startZ 539m
param *.uav[30].startX 3537m
param *.uav[30].startY 965m
param *.uav[30].startZ 539m
param *.uav[31].startX 312m
param *.uav[31].startY 1262m
param *.uav[31].startZ 540m
param *.uav[32].startX 2185m
param *.uav[32].startY 3026m
param *.uav[32].startZ 778m
param *.uav[33].startX 3537m
param *.uav[33].startY 965m
param *.uav[33].startZ 539m
param *.uav[34].startX 312m
param *.uav[34].startY 1262m
param *.uav[34].startZ 540m
param *.uav[35].startX 2185m
param *.uav[35].startY 3026m
param *.uav[35].startZ 778m
param *.uav[36].startX 3537m
param *.uav[36].startY 965m
param *.uav[36].startZ 539m
param *.uav[37].startX 312m
param *.uav[37].startY 1262m
param *.uav[37].startZ 540m
param *.uav[38].startX 2185m
param *.uav[38].startY 3026m
param *.uav[38].startZ 778m
param *.uav[39].startX 3537m
param *.uav[39].startY 965m
param *.uav[39].startZ 539m
param *.uav[40].startX 3537m
param *.uav[40].startY 965m
param *.uav[40].startZ 539m
param *.uav[41].startX 312m
param *.uav[41].startY 1262m
param *.uav[41].startZ 540m
param *.uav[42].startX 2185m
param *.uav[42].startY 3026m
param *.uav[42].startZ 778m
param *.uav[43].startX 3537m
param *.uav[43].startY 965m
param *.uav[43].startZ 539m
param *.uav[44].startX 312m
param *.uav[44].startY 1262m
param *.uav[44].startZ 540m
param *.uav[45].startX 2185m
param *.uav[45].startY 3026m
param *.uav[45].startZ 778m
param *.uav[46].startX 3537m
param *.uav[46].startY 965m
param *.uav[46].startZ 539m
param *.uav[47].startX 312m
param *.uav[47].startY 1262m
param *.uav[47].startZ 540m
param *.uav[48].startX 2185m
param *.uav[48].startY 3026m
param *.uav[48].startZ 778m
param *.uav[49].startX 3537m
param *.uav[49].startY 965m
param *.uav[49].startZ 539m
param *.uav[50].startX 3537m
param *.uav[50].startY 965m
param *.uav[50].startZ 539m
param *.uav[51].startX 312m
param *.uav[51].startY 1262m
param *.uav[51].startZ 540m
param *.uav[52].startX 2185m
param *.uav[52].startY 3026m
param *.uav[52].startZ 778m
param *.uav[53].startX 3537m
param *.uav[53].startY 965m
param *.uav[53].startZ 539m
param *.uav[54].startX 312m
param *.uav[54].startY 1262m
param *.uav[54].startZ 540m
param *.uav[55].startX 2185m
param *.uav[55].startY 3026m
param *.uav[55].startZ 778m
param *.uav[56].startX 3537m
param *.uav[56].startY 965m
param *.uav[56].startZ 539m
param *.uav[57].startX 312m
param *.uav[57].startY 1262m
param *.uav[57].startZ 540m
param *.uav[58].startX 2185m
param *.uav[58].startY 3026m
param *.uav[58].startZ 778m
param *.uav[59].startX 3537m
param *.uav[59].startY 965m
param *.uav[59].startZ 539m
param *.uav[60].startX 3537m
param *.uav[60].startY 965m
param *.uav[60].startZ 539m
param *.uav[61].startX 312m
param *.uav[61].startY 1262m
param *.uav[61].startZ 540m
param *.uav[62].startX 2185m
param *.uav[62].startY 3026m
param *.uav[62].startZ 778m
param *.uav[63].startX 3537m
param *.uav[63].startY 965m
param *.uav[63].startZ 539m
param *.uav[64].startX 312m
param *.uav[64].startY 1262m
param *.uav[64].startZ 540m
param *.uav[65].startX 2185m
param *.uav[65].startY 3026m
param *.uav[65].startZ 778m
param *.uav[66].startX 3537m
param *.uav[66].startY 965m
param *.uav[66].startZ 539m
param *.uav[67].startX 312m
param *.uav[67].startY 1262m
param *.uav[67].startZ 540m
param *.uav[68].startX 2185m
param *.uav[68].startY 3026m
param *.uav[68].startZ 778m
param *.uav[69].startX 3537m
param *.uav[69].startY 965m
param *.uav[69].startZ 539m
param *.uav[70].startX 3537m
param *.uav[70].startY 965m
param *.uav[70].startZ 539m
param *.uav[71].startX 312m
param *.uav[71].startY 1262m
param *.uav[71].startZ 540m
param *.uav[72].startX 2185m
param *.uav[72].startY 3026m
param *.uav[72].startZ 778m
param *.uav[73].startX 3537m
param *.uav[73].startY 965m
param *.uav[73].startZ 539m
param *.uav[74].startX 312m
param *.uav[74].startY 1262m
param *.uav[74].startZ 540m
param *.uav[75].startX 2185m
param *.uav[75].startY 3026m
param *.uav[75].startZ 778m
param *.uav[76].startX 3537m
param *.uav[76].startY 965m
param *.uav[76].startZ 539m
param *.uav[77].startX 312m
param *.uav[77].startY 1262m
param *.uav[77].startZ 540m
param *.uav[78].startX 2185m
param *.uav[78].startY 3026m
param *.uav[78].startZ 778m
param *.uav[79].startX 3537m
param *.uav[79].startY 965m
param *.uav[79].startZ 539m
param *.uav[80].startX 3537m
param *.uav[80].startY 965m
param *.uav[80].startZ 539m
param *.uav[81].startX 312m
param *.uav[81].startY 1262m
param *.uav[81].startZ 540m
param *.uav[82].startX 2185m
param *.uav[82].startY 3026m
param *.uav[82].startZ 778m
param *.uav[83].startX 3537m
param *.uav[83].startY 965m
param *.uav[83].startZ 539m
param *.uav[84].startX 312m
param *.uav[84].startY 1262m
param *.uav[84].startZ 540m
param *.uav[85].startX 2185m
param *.uav[85].startY 3026m
param *.uav[85].startZ 778m
param *.uav[86].startX 3537m
param *.uav[86].startY 965m
param *.uav[86].startZ 539m
param *.uav[87].startX 312m
param *.uav[87].startY 1262m
param *.uav[87].startZ 540m
param *.uav[88].startX 2185m
param *.uav[88].startY 3026m
param *.uav[88].startZ 778m
param *.uav[89].startX 3537m
param *.uav[89].startY 965m
param *.uav[89].startZ 539m
param *.uav[90].startX 3537m
param *.uav[90].startY 965m
param *.uav[90].startZ 539m
param *.uav[91].startX 312m
param *.uav[91].startY 1262m
param *.uav[91].startZ 540m
param *.uav[92].startX 2185m
param *.uav[92].startY 3026m
param *.uav[92].startZ 778m
param *.uav[93].startX 3537m
param *.uav[93].startY 965m
param *.uav[93].startZ 539m
param *.uav[94].startX 312m
param *.uav[94].startY 1262m
param *.uav[94].startZ 540m
param *.uav[95].startX 2185m
param *.uav[95].startY 3026m
param *.uav[95].startZ 778m
param *.uav[96].startX 3537m
param *.uav[96].startY 965m
param *.uav[96].startZ 539m
param *.uav[97].startX 312m
param *.uav[97].startY 1262m
param *.uav[97].startZ 540m
param *.uav[98].startX 2185m
param *.uav[98].startY 3026m
param *.uav[98].startZ 778m
param *.uav[99].startX 3537m
param *.uav[99].startY 965m
param *.uav[99].startZ 539m
param *.osgEarthScene.scene "\"boston.earth\""
param *.playgroundLatitude 42.3558
param *.playgroundLongitude -71.0677
param *.playgroundWidth 400m
param *.playgroundHeight 200m
param *.channelController.connectionColor "\"#0000FF40\""
param *.channelController.showConnections false
param *.uav[*].modelURL "\"quadrocopter.small.obj.15.scale.0,0,90.rot\""
param *.uav[*].labelColor "\"#FF7C00CC\""
param *.uav[*].label2Color "\"#FF7C00EE\""
param *.uav[*].batteryCapacity 5200mAh
param *.uav[*].batteryRemaining uav[index].batteryCapacity
param *.uav[*].predictionQuantile 0.95
param *.uav[*].replacementMethod 2
param *.uav[*].weightedSumWeight 0.5
param *.cs[*].modelURL "\"chargingstation_v1.osgt.1.scale.0,0,0.rot.0,0,-15e-1.trans\""
param *.cs[*].spotsWaiting 999
param *.cs[*].spotsCharging 999
param *.cs[*].chargeEffectivenessPercentage 100
param *.cs[*].nonLinearPhaseStartPercentage 85
param *.cs[*].chargeCurrent 6.0A
param *.cs[*].prioritizeFastCharge true
param *.missionControl.replacementSearchMethod 0
param *.*.timeStep 9s

scalar OsgEarthNet.uav[0] utilizationSecMission 19464.579778237
scalar OsgEarthNet.uav[0] utilizationSecMaintenance 15530.17122219
scalar OsgEarthNet.uav[0] utilizationSecCharge 128040
scalar OsgEarthNet.uav[0] utilizationSecIdle 96165.247999572
scalar OsgEarthNet.uav[0] utilizationEnergyMission 93034.185237885
scalar OsgEarthNet.uav[0] utilizationEnergyMaintenance 72732.623535156
scalar OsgEarthNet.uav[0] utilizationEnergyCharge 167049.62084961
scalar OsgEarthNet.uav[0] utilizationEnergyOverdrawMission 0
scalar OsgEarthNet.uav[0] utilizationEnergyOverdrawMaintenance 0
scalar OsgEarthNet.uav[0] utilizationCountMissions 38
scalar OsgEarthNet.uav[0] utilizationCountManeuversMission 611
scalar OsgEarthNet.uav[0] utilizationCountManeuversMaintenance 76
scalar OsgEarthNet.uav[0] utilizationCountChargeState 38
scalar OsgEarthNet.uav[0] utilizationCountOverdrawnAfterMission 0
scalar OsgEarthNet.uav[0] utilizationCountIdleState 39
scalar OsgEarthNet.uav[0] utilizationFail 0
scalar OsgEarthNet.uav[0] simulationTime 259200
scalar OsgEarthNet.uav[1] utilizationSecMission 27983.74913455
scalar OsgEarthNet.uav[1] utilizationSecMaintenance 23693.992297883
scalar OsgEarthNet.uav[1] utilizationSecCharge 184800.25756757
scalar OsgEarthNet.uav[1] utilizationSecIdle 22722
scalar OsgEarthNet.uav[1] utilizationEnergyMission 134980.39673996
scalar OsgEarthNet.uav[1] utilizationEnergyMaintenance 110730.67520905
scalar OsgEarthNet.uav[1] utilizationEnergyCharge 242948.39501953
scalar OsgEarthNet.uav[1] utilizationEnergyOverdrawMission 0
scalar OsgEarthNet.uav[1] utilizationEnergyOverdrawMaintenance 90.971809387207
scalar OsgEarthNet.uav[1] utilizationCountMissions 55
scalar OsgEarthNet.uav[1] utilizationCountManeuversMission 849
scalar OsgEarthNet.uav[1] utilizationCountManeuversMaintenance 110
scalar OsgEarthNet.uav[1] utilizationCountChargeState 55
scalar OsgEarthNet.uav[1] utilizationCountOverdrawnAfterMission 1
scalar OsgEarthNet.uav[1] utilizationCountIdleState 55
scalar OsgEarthNet.uav[1] utilizationFail 0
scalar OsgEarthNet.uav[1] simulationTime 259200
scalar OsgEarthNet.uav[2] utilizationSecMission 22158.562933518
scalar OsgEarthNet.uav[2] utilizationSecMaintenance 18815.997401929
scalar OsgEarthNet.uav[2] utilizationSecCharge 146976.59050696
scalar OsgEarthNet.uav[2] utilizationSecIdle 71248.84815759
scalar OsgEarthNet.uav[2] utilizationEnergyMission 107699.62487793
scalar OsgEarthNet.uav[2] utilizationEnergyMaintenance 87856.961360931
scalar OsgEarthNet.uav[2] utilizationEnergyCharge 192818.23999023
scalar OsgEarthNet.uav[2] utilizationEnergyOverdrawMission 0
scalar OsgEarthNet.uav[2] utilizationEnergyOverdrawMaintenance 0
scalar OsgEarthNet.uav[2] utilizationCountMissions 44
scalar OsgEarthNet.uav[2] utilizationCountManeuversMission 734
scalar OsgEarthNet.uav[2] utilizationCountManeuversMaintenance 88
scalar OsgEarthNet.uav[2] utilizationCountChargeState 44
scalar OsgEarthNet.uav[2] utilizationCountOverdrawnAfterMission 0
scalar OsgEarthNet.uav[2] utilizationCountIdleState 44
scalar OsgEarthNet.uav[2] utilizationFail 0
scalar OsgEarthNet.uav[2] simulationTime 259200
scalar OsgEarthNet.uav[3] utilizationSecMission 27555.541820083
scalar OsgEarthNet.uav[3] utilizationSecMaintenance 22904.870470409
scalar OsgEarthNet.uav[3] utilizationSecCharge 181827.58570951
scalar OsgEarthNet.uav[3] utilizationSecIdle 26912.001
scalar OsgEarthNet.uav[3] utilizationEnergyMission 133303.3524704
scalar OsgEarthNet.uav[3] utilizationEnergyMaintenance 107060.57719421
scalar OsgEarthNet.uav[3] utilizationEnergyCharge 239031.78759766
scalar OsgEarthNet.uav[3] utilizationEnergyOverdrawMission 0
scalar OsgEarthNet.uav[3] utilizationEnergyOverdrawMaintenance 0
scalar OsgEarthNet.uav[3] utilizationCountMissions 54
scalar OsgEarthNet.uav[3] utilizationCountManeuversMission 839
scalar OsgEarthNet.uav[3] utilizationCountManeuversMaintenance 108
scalar OsgEarthNet.uav[3] utilizationCountChargeState 54
scalar OsgEarthNet.uav[3] utilizationCountOverdrawnAfterMission 0
scalar OsgEarthNet.uav[3] utilizationCountIdleState 54
scalar OsgEarthNet.uav[3] utilizationFail 0
scalar OsgEarthNet.uav[3] simulationTime 259200
scalar OsgEarthNet.uav[4] utilizationSecMission 19930.580098984
scalar OsgEarthNet.uav[4] utilizationSecMaintenance 22886.876076561
scalar OsgEarthNet.uav[4] utilizationSecCharge 152390
scalar OsgEarthNet.uav[4] utilizationSecIdle 63992.542824454
scalar OsgEarthNet.uav[4] utilizationEnergyMission 97306.109366608
scalar OsgEarthNet.uav[4] utilizationEnergyMaintenance 106372.83261108
scalar OsgEarthNet.uav[4] utilizationEnergyCharge 198644.52783203
scalar OsgEarthNet.uav[4] utilizationEnergyOverdrawMission 0
scalar OsgEarthNet.uav[4] utilizationEnergyOverdrawMaintenance 0
scalar OsgEarthNet.uav[4] utilizationCountMissions 45
scalar OsgEarthNet.uav[4] utilizationCountManeuversMission 689
scalar OsgEarthNet.uav[4] utilizationCountManeuversMaintenance 91
scalar OsgEarthNet.uav[4] utilizationCountChargeState 45
scalar OsgEarthNet.uav[4] utilizationCountOverdrawnAfterMission 0
scalar OsgEarthNet.uav[4] utilizationCountIdleState 46
scalar OsgEarthNet.uav[4] utilizationFail 0
scalar OsgEarthNet.uav[4] simulationTime 259200
scalar OsgEarthNet.uav[5] utilizationSecMission 4149.5887375119
scalar OsgEarthNet.uav[5] utilizationSecMaintenance 4067.4055082338
scalar OsgEarthNet.uav[5] utilizationSecCharge 28799.543711479
scalar OsgEarthNet.uav[5] utilizationSecIdle 222183.46104278
scalar OsgEarthNet.uav[5] utilizationEnergyMission 20177.70198822
scalar OsgEarthNet.uav[5] utilizationEnergyMaintenance 19006.382583618
scalar OsgEarthNet.uav[5] utilizationEnergyCharge 38497.520019531
scalar OsgEarthNet.uav[5] utilizationEnergyOverdrawMission 0
scalar OsgEarthNet.uav[5] utilizationEnergyOverdrawMaintenance 0
scalar OsgEarthNet.uav[5] utilizationCountMissions 9
scalar OsgEarthNet.uav[5] utilizationCountManeuversMission 116
scalar OsgEarthNet.uav[5] utilizationCountManeuversMaintenance 18
scalar OsgEarthNet.uav[5] utilizationCountChargeState 9
scalar OsgEarthNet.uav[5] utilizationCountOverdrawnAfterMission 0
scalar OsgEarthNet.uav[5] utilizationCountIdleState 9
scalar OsgEarthNet.uav[5] utilizationFail 0
scalar OsgEarthNet.uav[5] simulationTime 259200
scalar OsgEarthNet.uav[6] utilizationSecMission 25123.486800153
scalar OsgEarthNet.uav[6] utilizationSecMaintenance 24324.509199847
scalar OsgEarthNet.uav[6] utilizationSecCharge 178990
scalar OsgEarthNet.uav[6] utilizationSecIdle 30762.003
scalar OsgEarthNet.uav[6] utilizationEnergyMission 124291.31103548
scalar OsgEarthNet.uav[6] utilizationEnergyMaintenance 113633.87720108
scalar OsgEarthNet.uav[6] utilizationEnergyCharge 233385.46264648
scalar OsgEarthNet.uav[6] utilizationEnergyOverdrawMission 0
scalar OsgEarthNet.uav[6] utilizationEnergyOverdrawMaintenance 0
scalar OsgEarthNet.uav[6] utilizationCountMissions 53
scalar OsgEarthNet.uav[6] utilizationCountManeuversMission 880
scalar OsgEarthNet.uav[6] utilizationCountManeuversMaintenance 107
scalar OsgEarthNet.uav[6] utilizationCountChargeState 53
scalar OsgEarthNet.uav[6] utilizationCountOverdrawnAfterMission 0
scalar OsgEarthNet.uav[6] utilizationCountIdleState 54
scalar OsgEarthNet.uav[6] utilizationFail 0
scalar OsgEarthNet.uav[6] simulationTime 259200
scalar OsgEarthNet.uav[7] utilizationSecMission 22757.404865218
scalar OsgEarthNet.uav[7] utilizationSecMaintenance 17038.524414661
scalar OsgEarthNet.uav[7] utilizationSecCharge 143812.05872012
scalar OsgEarthNet.uav[7] utilizationSecIdle 75592.011
scalar OsgEarthNet.uav[7] utilizationEnergyMission 110192.08483505
scalar OsgEarthNet.uav[7] utilizationEnergyMaintenance 78507.402919769
scalar OsgEarthNet.uav[7] utilizationEnergyCharge 189650.10449219
scalar OsgEarthNet.uav[7] utilizationEnergyOverdrawMission 0
scalar OsgEarthNet.uav[7] utilizationEnergyOverdrawMaintenance 0
scalar OsgEarthNet.uav[7] utilizationCountMissions 42
scalar OsgEarthNet.uav[7] utilizationCountManeuversMission 680
scalar OsgEarthNet.uav[7] utilizationCountManeuversMaintenance 84
scalar OsgEarthNet.uav[7] utilizationCountChargeState 42
scalar OsgEarthNet.uav[7] utilizationCountOverdrawnAfterMission 0
scalar OsgEarthNet.uav[7] utilizationCountIdleState 42
scalar OsgEarthNet.uav[7] utilizationFail 0
scalar OsgEarthNet.uav[7] simulationTime 259200
scalar OsgEarthNet.uav[8] utilizationSecMission 7169.2676544291
scalar OsgEarthNet.uav[8] utilizationSecMaintenance 6949.3390258236
scalar OsgEarthNet.uav[8] utilizationSecCharge 50490
scalar OsgEarthNet.uav[8] utilizationSecIdle 194591.39231975
scalar OsgEarthNet.uav[8] utilizationEnergyMission 34218.903968811
scalar OsgEarthNet.uav[8] utilizationEnergyMaintenance 31831.693584442
scalar OsgEarthNet.uav[8] utilizationEnergyCharge 65983.931152344
scalar OsgEarthNet.uav[8] utilizationEnergyOverdrawMission 0
scalar OsgEarthNet.uav[8] utilizationEnergyOverdrawMaintenance 0
scalar OsgEarthNet.uav[8] utilizationCountMissions 15
scalar OsgEarthNet.uav[8] utilizationCountManeuversMission 218
scalar OsgEarthNet.uav[8] utilizationCountManeuversMaintenance 30
scalar OsgEarthNet.uav[8] utilizationCountChargeState 15
scalar OsgEarthNet.uav[8] utilizationCountOverdrawnAfterMission 0
scalar OsgEarthNet.uav[8] utilizationCountIdleState 16
scalar OsgEarthNet.uav[8] utilizationFail 0
scalar OsgEarthNet.uav[8] simulationTime 259200
scalar OsgEarthNet.uav[9] utilizationSecMission 20600.953299054
scalar OsgEarthNet.uav[9] utilizationSecMaintenance 18624.40025525
scalar OsgEarthNet.uav[9] utilizationSecCharge 138560
scalar OsgEarthNet.uav[9] utilizationSecIdle 81414.645445696
scalar OsgEarthNet.uav[9] utilizationEnergyMission 98736.328472137
scalar OsgEarthNet.uav[9] utilizationEnergyMaintenance 86937.335562438
scalar OsgEarthNet.uav[9] utilizationEnergyCharge 181075.84277344
scalar OsgEarthNet.uav[9] utilizationEnergyOverdrawMission 0
scalar OsgEarthNet.uav[9] utilizationEnergyOverdrawMaintenance 0
scalar OsgEarthNet.uav[9] utilizationCountMissions 42
scalar OsgEarthNet.uav[9] utilizationCountManeuversMission 612
scalar OsgEarthNet.uav[9] utilizationCountManeuversMaintenance 84
scalar OsgEarthNet.uav[9] utilizationCountChargeState 41
scalar OsgEarthNet.uav[9] utilizationCountOverdrawnAfterMission 0
scalar OsgEarthNet.uav[9] utilizationCountIdleState 42
scalar OsgEarthNet.uav[9] utilizationFail 0
scalar OsgEarthNet.uav[9] simulationTime 259200
scalar OsgEarthNet.uav[10] utilizationSecMission 26269.978561436
scalar OsgEarthNet.uav[10] utilizationSecMaintenance 24269.920061131
scalar OsgEarthNet.uav[10] utilizationSecCharge 181547.47421664
scalar OsgEarthNet.uav[10] utilizationSecIdle 27112.626160789
scalar OsgEarthNet.uav[10] utilizationEnergyMission 129183.27730942
scalar OsgEarthNet.uav[10] utilizationEnergyMaintenance 113264.69351578
scalar OsgEarthNet.uav[10] utilizationEnergyCharge 238072.19091797
scalar OsgEarthNet.uav[10] utilizationEnergyOverdrawMission 0
scalar OsgEarthNet.uav[10] utilizationEnergyOverdrawMaintenance 0
scalar OsgEarthNet.uav[10] utilizationCountMissions 54
scalar OsgEarthNet.uav[10] utilizationCountManeuversMission 823
scalar OsgEarthNet.uav[10] utilizationCountManeuversMaintenance 108
scalar OsgEarthNet.uav[10] utilizationCountChargeState 54
scalar OsgEarthNet.uav[10] utilizationCountOverdrawnAfterMission 0
scalar OsgEarthNet.uav[10] utilizationCountIdleState 54
scalar OsgEarthNet.uav[10] utilizationFail 0
scalar OsgEarthNet.uav[10] simulationTime 259200
scalar OsgEarthNet.uav[11] utilizationSecMission 27441.804449179
scalar OsgEarthNet.uav[11] utilizationSecMaintenance 22166.191550821
scalar OsgEarthNet.uav[11] utilizationSecCharge 177120
scalar OsgEarthNet.uav[11] utilizationSecIdle 32472.003
scalar OsgEarthNet.uav[11] utilizationEnergyMission 133363.79047394
scalar OsgEarthNet.uav[11] utilizationEnergyMaintenance 103569.44727022
scalar OsgEarthNet.uav[11] utilizationEnergyCharge 232057.84228516
scalar OsgEarthNet.uav[11] utilizationEnergyOverdrawMission 0
scalar OsgEarthNet.uav[11] utilizationEnergyOverdrawMaintenance 0
scalar OsgEarthNet.uav[11] utilizationCountMissions 53
scalar OsgEarthNet.uav[11] utilizationCountManeuversMission 885
scalar OsgEarthNet.uav[11] utilizationCountManeuversMaintenance 106
scalar OsgEarthNet.uav[11] utilizationCountChargeState 52
scalar OsgEarthNet.uav[11] utilizationCountOverdrawnAfterMission 0
scalar OsgEarthNet.uav[11] utilizationCountIdleState 53
scalar OsgEarthNet.uav[11] utilizationFail 0
scalar OsgEarthNet.uav[11] simulationTime 259200
scalar OsgEarthNet.uav[12] utilizationSecMission 27049.653306019
scalar OsgEarthNet.uav[12] utilizationSecMaintenance 22952.45102241
scalar OsgEarthNet.uav[12] utilizationSecCharge 177436.44171285
scalar OsgEarthNet.uav[12] utilizationSecIdle 31761.452958717
scalar OsgEarthNet.uav[12] utilizationEnergyMission 128639.65771866
scalar OsgEarthNet.uav[12] utilizationEnergyMaintenance 105204.3692894
scalar OsgEarthNet.uav[12] utilizationEnergyCharge 232882.58422852
scalar OsgEarthNet.uav[12] utilizationEnergyOverdrawMission 0
scalar OsgEarthNet.uav[12] utilizationEnergyOverdrawMaintenance 0
scalar OsgEarthNet.uav[12] utilizationCountMissions 53
scalar OsgEarthNet.uav[12] utilizationCountManeuversMission 769
scalar OsgEarthNet.uav[12] utilizationCountManeuversMaintenance 106
scalar OsgEarthNet.uav[12] utilizationCountChargeState 53
scalar OsgEarthNet.uav[12] utilizationCountOverdrawnAfterMission 0
scalar OsgEarthNet.uav[12] utilizationCountIdleState 53
scalar OsgEarthNet.uav[12] utilizationFail 0
scalar OsgEarthNet.uav[12] simulationTime 259200
scalar OsgEarthNet.uav[13] utilizationSecMission 558.29059458083
scalar OsgEarthNet.uav[13] utilizationSecMaintenance 416.7137519136
scalar OsgEarthNet.uav[13] utilizationSecCharge 3620
scalar OsgEarthNet.uav[13] utilizationSecIdle 254604.99465351
scalar OsgEarthNet.uav[13] utilizationEnergyMission 2837.0101470947
scalar OsgEarthNet.uav[13] utilizationEnergyMaintenance 2032.4778060913
scalar OsgEarthNet.uav[13] utilizationEnergyCharge 4869.48828125
scalar OsgEarthNet.uav[13] utilizationEnergyOverdrawMission 0
scalar OsgEarthNet.uav[13] utilizationEnergyOverdrawMaintenance 0
scalar OsgEarthNet.uav[13] utilizationCountMissions 1
scalar OsgEarthNet.uav[13] utilizationCountManeuversMission 8
scalar OsgEarthNet.uav[13] utilizationCountManeuversMaintenance 2
scalar OsgEarthNet.uav[13] utilizationCountChargeState 1
scalar OsgEarthNet.uav[13] utilizationCountOverdrawnAfterMission 0
scalar OsgEarthNet.uav[13] utilizationCountIdleState 2
scalar OsgEarthNet.uav[13] utilizationFail 0
scalar OsgEarthNet.uav[13] simulationTime 259200
scalar OsgEarthNet.uav[14] utilizationSecMission 25840.257863714
scalar OsgEarthNet.uav[14] utilizationSecMaintenance 23664.252551865
scalar OsgEarthNet.uav[14] utilizationSecCharge 177868.17347668
scalar OsgEarthNet.uav[14] utilizationSecIdle 31827.315107746
scalar OsgEarthNet.uav[14] utilizationEnergyMission 125427.96670914
scalar OsgEarthNet.uav[14] utilizationEnergyMaintenance 110508.5285759
scalar OsgEarthNet.uav[14] utilizationEnergyCharge 233596.07348633
scalar OsgEarthNet.uav[14] utilizationEnergyOverdrawMission 0
scalar OsgEarthNet.uav[14] utilizationEnergyOverdrawMaintenance 116.41592407227
scalar OsgEarthNet.uav[14] utilizationCountMissions 53
scalar OsgEarthNet.uav[14] utilizationCountManeuversMission 824
scalar OsgEarthNet.uav[14] utilizationCountManeuversMaintenance 106
scalar OsgEarthNet.uav[14] utilizationCountChargeState 53
scalar OsgEarthNet.uav[14] utilizationCountOverdrawnAfterMission 1
scalar OsgEarthNet.uav[14] utilizationCountIdleState 53
scalar OsgEarthNet.uav[14] utilizationFail 0
scalar OsgEarthNet.uav[14] simulationTime 259200
scalar OsgEarthNet.uav[15] utilizationSecMission 25439.90754198
scalar OsgEarthNet.uav[15] utilizationSecMaintenance 24556.432449807
scalar OsgEarthNet.uav[15] utilizationSecCharge 180524.4393943
scalar OsgEarthNet.uav[15] utilizationSecIdle 28679.219613916
scalar OsgEarthNet.uav[15] utilizationEnergyMission 123246.21818924
scalar OsgEarthNet.uav[15] utilizationEnergyMaintenance 114612.70925903
scalar OsgEarthNet.uav[15] utilizationEnergyCharge 237084.94555664
scalar OsgEarthNet.uav[15] utilizationEnergyOverdrawMission 0
scalar OsgEarthNet.uav[15] utilizationEnergyOverdrawMaintenance 0
scalar OsgEarthNet.uav[15] utilizationCountMissions 53
scalar OsgEarthNet.uav[15] utilizationCountManeuversMission 839
scalar OsgEarthNet.uav[15] utilizationCountManeuversMaintenance 106
scalar OsgEarthNet.uav[15] utilizationCountChargeState 53
scalar OsgEarthNet.uav[15] utilizationCountOverdrawnAfterMission 0
scalar OsgEarthNet.uav[15] utilizationCountIdleState 53
scalar OsgEarthNet.uav[15] utilizationFail 0
scalar OsgEarthNet.uav[15] simulationTime 259200
scalar OsgEarthNet.uav[16] utilizationSecMission 22985.833393305
scalar OsgEarthNet.uav[16] utilizationSecMaintenance 25898.827665364
scalar OsgEarthNet.uav[16] utilizationSecCharge 177113.33194133
scalar OsgEarthNet.uav[16] utilizationSecIdle 33202.006
scalar OsgEarthNet.uav[16] utilizationEnergyMission 112207.39380264
scalar OsgEarthNet.uav[16] utilizationEnergyMaintenance 119377.26403427
scalar OsgEarthNet.uav[16] utilizationEnergyCharge 232415.33569336
scalar OsgEarthNet.uav[16] utilizationEnergyOverdrawMission 0
scalar OsgEarthNet.uav[16] utilizationEnergyOverdrawMaintenance 43.387557983398
scalar OsgEarthNet.uav[16] utilizationCountMissions 52
scalar OsgEarthNet.uav[16] utilizationCountManeuversMission 751
scalar OsgEarthNet.uav[16] utilizationCountManeuversMaintenance 104
scalar OsgEarthNet.uav[16] utilizationCountChargeState 52
scalar OsgEarthNet.uav[16] utilizationCountOverdrawnAfterMission 1
scalar OsgEarthNet.uav[16] utilizationCountIdleState 52
scalar OsgEarthNet.uav[16] utilizationFail 0
scalar OsgEarthNet.uav[16] simulationTime 259200
scalar OsgEarthNet.uav[17] utilizationSecMission 26389.876498483
scalar OsgEarthNet.uav[17] utilizationSecMaintenance 23358.179235212
scalar OsgEarthNet.uav[17] utilizationSecCharge 180583.48698912
scalar OsgEarthNet.uav[17] utilizationSecIdle 28868.456277181
scalar OsgEarthNet.uav[17] utilizationEnergyMission 130697.45033264
scalar OsgEarthNet.uav[17] utilizationEnergyMaintenance 108437.21934128
scalar OsgEarthNet.uav[17] utilizationEnergyCharge 236461.57397461
scalar OsgEarthNet.uav[17] utilizationEnergyOverdrawMission 0
scalar OsgEarthNet.uav[17] utilizationEnergyOverdrawMaintenance 0
scalar OsgEarthNet.uav[17] utilizationCountMissions 54
scalar OsgEarthNet.uav[17] utilizationCountManeuversMission 902
scalar OsgEarthNet.uav[17] utilizationCountManeuversMaintenance 108
scalar OsgEarthNet.uav[17] utilizationCountChargeState 54
scalar OsgEarthNet.uav[17] utilizationCountOverdrawnAfterMission 0
scalar OsgEarthNet.uav[17] utilizationCountIdleState 54
scalar OsgEarthNet.uav[17] utilizationFail 0
scalar OsgEarthNet.uav[17] simulationTime 259200
scalar OsgEarthNet.uav[18] utilizationSecMission 27805.275909385
scalar OsgEarthNet.uav[18] utilizationSecMaintenance 20452.630652562
scalar OsgEarthNet.uav[18] utilizationSecCharge 172342.66709076
scalar OsgEarthNet.uav[18] utilizationSecIdle 38599.42534729
scalar OsgEarthNet.uav[18] utilizationEnergyMission 131986.18399429
scalar OsgEarthNet.uav[18] utilizationEnergyMaintenance 94637.906082153
scalar OsgEarthNet.uav[18] utilizationEnergyCharge 226818.74072266
scalar OsgEarthNet.uav[18] utilizationEnergyOverdrawMission 0
scalar OsgEarthNet.uav[18] utilizationEnergyOverdrawMaintenance 0
scalar OsgEarthNet.uav[18] utilizationCountMissions 51
scalar OsgEarthNet.uav[18] utilizationCountManeuversMission 791
scalar OsgEarthNet.uav[18] utilizationCountManeuversMaintenance 102
scalar OsgEarthNet.uav[18] utilizationCountChargeState 51
scalar OsgEarthNet.uav[18] utilizationCountOverdrawnAfterMission 0
scalar OsgEarthNet.uav[18] utilizationCountIdleState 51
scalar OsgEarthNet.uav[18] utilizationFail 0
scalar OsgEarthNet.uav[18] simulationTime 259200
scalar OsgEarthNet.uav[19] utilizationSecMission 26666.184065446
scalar OsgEarthNet.uav[19] utilizationSecMaintenance 23726.718805114
scalar OsgEarthNet.uav[19] utilizationSecCharge 183295.09612944
scalar OsgEarthNet.uav[19] utilizationSecIdle 25512
scalar OsgEarthNet.uav[19] utilizationEnergyMission 129442.68356323
scalar OsgEarthNet.uav[19] utilizationEnergyMaintenance 111180.99605942
scalar OsgEarthNet.uav[19] utilizationEnergyCharge 239746.11254883
scalar OsgEarthNet.uav[19] utilizationEnergyOverdrawMission 0
scalar OsgEarthNet.uav[19] utilizationEnergyOverdrawMaintenance 0
scalar OsgEarthNet.uav[19] utilizationCountMissions 55
scalar OsgEarthNet.uav[19] utilizationCountManeuversMission 841
scalar OsgEarthNet.uav[19] utilizationCountManeuversMaintenance 109
scalar OsgEarthNet.uav[19] utilizationCountChargeState 55
scalar OsgEarthNet.uav[19] utilizationCountOverdrawnAfterMission 0
scalar OsgEarthNet.uav[19] utilizationCountIdleState 55
scalar OsgEarthNet.uav[19] utilizationFail 0
scalar OsgEarthNet.uav[19] simulationTime 259200
scalar OsgEarthNet.uav[20] utilizationSecMission 480
scalar OsgEarthNet.uav[20] utilizationSecMaintenance 363.8841636065
scalar OsgEarthNet.uav[20] utilizationSecCharge 3340
scalar OsgEarthNet.uav[20] utilizationSecIdle 255016.11483639
scalar OsgEarthNet.uav[20] utilizationEnergyMission 2336.4774742126
scalar OsgEarthNet.uav[20] utilizationEnergyMaintenance 1738.2029533386
scalar OsgEarthNet.uav[20] utilizationEnergyCharge 4353.4858398438
scalar OsgEarthNet.uav[20] utilizationEnergyOverdrawMission 0
scalar OsgEarthNet.uav[20] utilizationEnergyOverdrawMaintenance 0
scalar OsgEarthNet.uav[20] utilizationCountMissions 1
scalar OsgEarthNet.uav[20] utilizationCountManeuversMission 24
scalar OsgEarthNet.uav[20] utilizationCountManeuversMaintenance 2
scalar OsgEarthNet.uav[20] utilizationCountChargeState 1
scalar OsgEarthNet.uav[20] utilizationCountOverdrawnAfterMission 0
scalar OsgEarthNet.uav[20] utilizationCountIdleState 2
scalar OsgEarthNet.uav[20] utilizationFail 0
scalar OsgEarthNet.uav[20] simulationTime 259200
scalar OsgEarthNet.uav[21] utilizationSecMission 26975.852743784
scalar OsgEarthNet.uav[21] utilizationSecMaintenance 24411.027020592
scalar OsgEarthNet.uav[21] utilizationSecCharge 181468.50734611
scalar OsgEarthNet.uav[21] utilizationSecIdle 26344.611889516
scalar OsgEarthNet.uav[21] utilizationEnergyMission 129576.54240417
scalar OsgEarthNet.uav[21] utilizationEnergyMaintenance 112230.76847839
scalar OsgEarthNet.uav[21] utilizationEnergyCharge 237996.94165039
scalar OsgEarthNet.uav[21] utilizationEnergyOverdrawMission 0
scalar OsgEarthNet.uav[21] utilizationEnergyOverdrawMaintenance 0
scalar OsgEarthNet.uav[21] utilizationCountMissions 54
scalar OsgEarthNet.uav[21] utilizationCountManeuversMission 814
scalar OsgEarthNet.uav[21] utilizationCountManeuversMaintenance 108
scalar OsgEarthNet.uav[21] utilizationCountChargeState 54
scalar OsgEarthNet.uav[21] utilizationCountOverdrawnAfterMission 0
scalar OsgEarthNet.uav[21] utilizationCountIdleState 54
scalar OsgEarthNet.uav[21] utilizationFail 0
scalar OsgEarthNet.uav[21] simulationTime 259200
scalar OsgEarthNet.uav[22] utilizationSecMission 24120.648738595
scalar OsgEarthNet.uav[22] utilizationSecMaintenance 20681.923253411
scalar OsgEarthNet.uav[22] utilizationSecCharge 161555.42200799
scalar OsgEarthNet.uav[22] utilizationSecIdle 52842.005
scalar OsgEarthNet.uav[22] utilizationEnergyMission 115635.78700256
scalar OsgEarthNet.uav[22] utilizationEnergyMaintenance 95777.100837707
scalar OsgEarthNet.uav[22] utilizationEnergyCharge 212515.20288086
scalar OsgEarthNet.uav[22] utilizationEnergyOverdrawMission 0
scalar OsgEarthNet.uav[22] utilizationEnergyOverdrawMaintenance 0
scalar OsgEarthNet.uav[22] utilizationCountMissions 48
scalar OsgEarthNet.uav[22] utilizationCountManeuversMission 758
scalar OsgEarthNet.uav[22] utilizationCountManeuversMaintenance 96
scalar OsgEarthNet.uav[22] utilizationCountChargeState 48
scalar OsgEarthNet.uav[22] utilizationCountOverdrawnAfterMission 0
scalar OsgEarthNet.uav[22] utilizationCountIdleState 48
scalar OsgEarthNet.uav[22] utilizationFail 0
scalar OsgEarthNet.uav[22] simulationTime 259200
scalar OsgEarthNet.uav[23] utilizationSecMission 460
scalar OsgEarthNet.uav[23] utilizationSecMaintenance 363.8841636065
scalar OsgEarthNet.uav[23] utilizationSecCharge 3430
scalar OsgEarthNet.uav[23] utilizationSecIdle 254946.11483639
scalar OsgEarthNet.uav[23] utilizationEnergyMission 2244.401424408
scalar OsgEarthNet.uav[23] utilizationEnergyMaintenance 1662.3521842957
scalar OsgEarthNet.uav[23] utilizationEnergyCharge 4518.6840820312
scalar OsgEarthNet.uav[23] utilizationEnergyOverdrawMission 0
scalar OsgEarthNet.uav[23] utilizationEnergyOverdrawMaintenance 0
scalar OsgEarthNet.uav[23] utilizationCountMissions 1
scalar OsgEarthNet.uav[23] utilizationCountManeuversMission 23
scalar OsgEarthNet.uav[23] utilizationCountManeuversMaintenance 2
scalar OsgEarthNet.uav[23] utilizationCountChargeState 1
scalar OsgEarthNet.uav[23] utilizationCountOverdrawnAfterMission 0
scalar OsgEarthNet.uav[23] utilizationCountIdleState 2
scalar OsgEarthNet.uav[23] utilizationFail 0
scalar OsgEarthNet.uav[23] simulationTime 259200
scalar OsgEarthNet.uav[24] utilizationSecMission 25298.650118359
scalar OsgEarthNet.uav[24] utilizationSecMaintenance 20037.740776913
scalar OsgEarthNet.uav[24] utilizationSecCharge 162871.52088191
scalar OsgEarthNet.uav[24] utilizationSecIdle 50992.087222815
scalar OsgEarthNet.uav[24] utilizationEnergyMission 121574.14964676
scalar OsgEarthNet.uav[24] utilizationEnergyMaintenance 94029.550556183
scalar OsgEarthNet.uav[24] utilizationEnergyCharge 213780.52587891
scalar OsgEarthNet.uav[24] utilizationEnergyOverdrawMission 0
scalar OsgEarthNet.uav[24] utilizationEnergyOverdrawMaintenance 287.82315063477
scalar OsgEarthNet.uav[24] utilizationCountMissions 48
scalar OsgEarthNet.uav[24] utilizationCountManeuversMission 710
scalar OsgEarthNet.uav[24] utilizationCountManeuversMaintenance 96
scalar OsgEarthNet.uav[24] utilizationCountChargeState 48
scalar OsgEarthNet.uav[24] utilizationCountOverdrawnAfterMission 1
scalar OsgEarthNet.uav[24] utilizationCountIdleState 48
scalar OsgEarthNet.uav[24] utilizationFail 0
scalar OsgEarthNet.uav[24] simulationTime 259200
scalar OsgEarthNet.uav[25] utilizationSecMission 26147.199607506
scalar OsgEarthNet.uav[25] utilizationSecMaintenance 24059.521993076
scalar OsgEarthNet.uav[25] utilizationSecCharge 180095.82713539
scalar OsgEarthNet.uav[25] utilizationSecIdle 28897.450264031
scalar OsgEarthNet.uav[25] utilizationEnergyMission 126407.03367233
scalar OsgEarthNet.uav[25] utilizationEnergyMaintenance 112866.40481949
scalar OsgEarthNet.uav[25] utilizationEnergyCharge 235808.22137451
scalar OsgEarthNet.uav[25] utilizationEnergyOverdrawMission 0
scalar OsgEarthNet.uav[25] utilizationEnergyOverdrawMaintenance 0
scalar OsgEarthNet.uav[25] utilizationCountMissions 54
scalar OsgEarthNet.uav[25] utilizationCountManeuversMission 844
scalar OsgEarthNet.uav[25] utilizationCountManeuversMaintenance 108
scalar OsgEarthNet.uav[25] utilizationCountChargeState 54
scalar OsgEarthNet.uav[25] utilizationCountOverdrawnAfterMission 0
scalar OsgEarthNet.uav[25] utilizationCountIdleState 54
scalar OsgEarthNet.uav[25] utilizationFail 0
scalar OsgEarthNet.uav[25] simulationTime 259200
scalar OsgEarthNet.uav[26] utilizationSecMission 25102.324323431
scalar OsgEarthNet.uav[26] utilizationSecMaintenance 21364.583389345
scalar OsgEarthNet.uav[26] utilizationSecCharge 164811.08428722
scalar OsgEarthNet.uav[26] utilizationSecIdle 47922.007
scalar OsgEarthNet.uav[26] utilizationEnergyMission 122244.49344254
scalar OsgEarthNet.uav[26] utilizationEnergyMaintenance 100118.07136917
scalar OsgEarthNet.uav[26] utilizationEnergyCharge 216316.12493896
scalar OsgEarthNet.uav[26] utilizationEnergyOverdrawMission 0
scalar OsgEarthNet.uav[26] utilizationEnergyOverdrawMaintenance 0
scalar OsgEarthNet.uav[26] utilizationCountMissions 49
scalar OsgEarthNet.uav[26] utilizationCountManeuversMission 752
scalar OsgEarthNet.uav[26] utilizationCountManeuversMaintenance 98
scalar OsgEarthNet.uav[26] utilizationCountChargeState 49
scalar OsgEarthNet.uav[26] utilizationCountOverdrawnAfterMission 0
scalar OsgEarthNet.uav[26] utilizationCountIdleState 49
scalar OsgEarthNet.uav[26] utilizationFail 0
scalar OsgEarthNet.uav[26] simulationTime 259200
scalar OsgEarthNet.uav[27] utilizationSecMission 27322.312278288
scalar OsgEarthNet.uav[27] utilizationSecMaintenance 23397.05319806
scalar OsgEarthNet.uav[27] utilizationSecCharge 183948.63352365
scalar OsgEarthNet.uav[27] utilizationSecIdle 24532
scalar OsgEarthNet.uav[27] utilizationEnergyMission 134300.48659897
scalar OsgEarthNet.uav[27] utilizationEnergyMaintenance 108356.50405884
scalar OsgEarthNet.uav[27] utilizationEnergyCharge 240985.11572266
scalar OsgEarthNet.uav[27] utilizationEnergyOverdrawMission 0
scalar OsgEarthNet.uav[27] utilizationEnergyOverdrawMaintenance 39.165458679199
scalar OsgEarthNet.uav[27] utilizationCountMissions 54
scalar OsgEarthNet.uav[27] utilizationCountManeuversMission 877
scalar OsgEarthNet.uav[27] utilizationCountManeuversMaintenance 107
scalar OsgEarthNet.uav[27] utilizationCountChargeState 54
scalar OsgEarthNet.uav[27] utilizationCountOverdrawnAfterMission 1
scalar OsgEarthNet.uav[27] utilizationCountIdleState 54
scalar OsgEarthNet.uav[27] utilizationFail 0
scalar OsgEarthNet.uav[27] simulationTime 259200
scalar OsgEarthNet.uav[28] utilizationSecMission 15241.88755944
scalar OsgEarthNet.uav[28] utilizationSecMaintenance 12786.4226786
scalar OsgEarthNet.uav[28] utilizationSecCharge 99910
scalar OsgEarthNet.uav[28] utilizationSecIdle 131261.68876196
scalar OsgEarthNet.uav[28] utilizationEnergyMission 72527.257675171
scalar OsgEarthNet.uav[28] utilizationEnergyMaintenance 59020.541805267
scalar OsgEarthNet.uav[28] utilizationEnergyCharge 131813.40917969
scalar OsgEarthNet.uav[28] utilizationEnergyOverdrawMission 0
scalar OsgEarthNet.uav[28] utilizationEnergyOverdrawMaintenance 100.86279296875
scalar OsgEarthNet.uav[28] utilizationCountMissions 29
scalar OsgEarthNet.uav[28] utilizationCountManeuversMission 407
scalar OsgEarthNet.uav[28] utilizationCountManeuversMaintenance 58
scalar OsgEarthNet.uav[28] utilizationCountChargeState 29
scalar OsgEarthNet.uav[28] utilizationCountOverdrawnAfterMission 1
scalar OsgEarthNet.uav[28] utilizationCountIdleState 30
scalar OsgEarthNet.uav[28] utilizationFail 0
scalar OsgEarthNet.uav[28] simulationTime 259200
scalar OsgEarthNet.uav[29] utilizationSecMission 27575.130034648
scalar OsgEarthNet.uav[29] utilizationSecMaintenance 23764.726178116
scalar OsgEarthNet.uav[29] utilizationSecCharge 185558.14278724
scalar OsgEarthNet.uav[29] utilizationSecIdle 22302
scalar OsgEarthNet.uav[29] utilizationEnergyMission 134585.92230988
scalar OsgEarthNet.uav[29] utilizationEnergyMaintenance 111414.16405869
scalar OsgEarthNet.uav[29] utilizationEnergyCharge 244149.30908203
scalar OsgEarthNet.uav[29] utilizationEnergyOverdrawMission 0
scalar OsgEarthNet.uav[29] utilizationEnergyOverdrawMaintenance 0
scalar OsgEarthNet.uav[29] utilizationCountMissions 55
scalar OsgEarthNet.uav[29] utilizationCountManeuversMission 925
scalar OsgEarthNet.uav[29] utilizationCountManeuversMaintenance 110
scalar OsgEarthNet.uav[29] utilizationCountChargeState 55
scalar OsgEarthNet.uav[29] utilizationCountOverdrawnAfterMission 0
scalar OsgEarthNet.uav[29] utilizationCountIdleState 55
scalar OsgEarthNet.uav[29] utilizationFail 0
scalar OsgEarthNet.uav[29] simulationTime 259200
scalar OsgEarthNet.uav[30] utilizationSecMission 11169.225798096
scalar OsgEarthNet.uav[30] utilizationSecMaintenance 9467.6277101959
scalar OsgEarthNet.uav[30] utilizationSecCharge 73820
scalar OsgEarthNet.uav[30] utilizationSecIdle 164743.14549171
scalar OsgEarthNet.uav[30] utilizationEnergyMission 53774.946369171
scalar OsgEarthNet.uav[30] utilizationEnergyMaintenance 44219.497386932
scalar OsgEarthNet.uav[30] utilizationEnergyCharge 95727.666259766
scalar OsgEarthNet.uav[30] utilizationEnergyOverdrawMission 0
scalar OsgEarthNet.uav[30] utilizationEnergyOverdrawMaintenance 0
scalar OsgEarthNet.uav[30] utilizationCountMissions 22
scalar OsgEarthNet.uav[30] utilizationCountManeuversMission 342
scalar OsgEarthNet.uav[30] utilizationCountManeuversMaintenance 44
scalar OsgEarthNet.uav[30] utilizationCountChargeState 22
scalar OsgEarthNet.uav[30] utilizationCountOverdrawnAfterMission 0
scalar OsgEarthNet.uav[30] utilizationCountIdleState 23
scalar OsgEarthNet.uav[30] utilizationFail 0
scalar OsgEarthNet.uav[30] simulationTime 259200
scalar OsgEarthNet.uav[31] utilizationSecMission 24866.731002237
scalar OsgEarthNet.uav[31] utilizationSecMaintenance 25931.251040336
scalar OsgEarthNet.uav[31] utilizationSecCharge 182240.01495743
scalar OsgEarthNet.uav[31] utilizationSecIdle 26162.002
scalar OsgEarthNet.uav[31] utilizationEnergyMission 120552.24384308
scalar OsgEarthNet.uav[31] utilizationEnergyMaintenance 121284.42379379
scalar OsgEarthNet.uav[31] utilizationEnergyCharge 239804.23828125
scalar OsgEarthNet.uav[31] utilizationEnergyOverdrawMission 0
scalar OsgEarthNet.uav[31] utilizationEnergyOverdrawMaintenance 0
scalar OsgEarthNet.uav[31] utilizationCountMissions 54
scalar OsgEarthNet.uav[31] utilizationCountManeuversMission 763
scalar OsgEarthNet.uav[31] utilizationCountManeuversMaintenance 108
scalar OsgEarthNet.uav[31] utilizationCountChargeState 54
scalar OsgEarthNet.uav[31] utilizationCountOverdrawnAfterMission 0
scalar OsgEarthNet.uav[31] utilizationCountIdleState 54
scalar OsgEarthNet.uav[31] utilizationFail 0
scalar OsgEarthNet.uav[31] simulationTime 259200
scalar OsgEarthNet.uav[32] utilizationSecMission 16485.805248904
scalar OsgEarthNet.uav[32] utilizationSecMaintenance 14056.09738972
scalar OsgEarthNet.uav[32] utilizationSecCharge 110178.25954734
scalar OsgEarthNet.uav[32] utilizationSecIdle 118479.83681404
scalar OsgEarthNet.uav[32] utilizationEnergyMission 80050.143806458
scalar OsgEarthNet.uav[32] utilizationEnergyMaintenance 66384.797142029
scalar OsgEarthNet.uav[32] utilizationEnergyCharge 145232.82861328
scalar OsgEarthNet.uav[32] utilizationEnergyOverdrawMission 0
scalar OsgEarthNet.uav[32] utilizationEnergyOverdrawMaintenance 0
scalar OsgEarthNet.uav[32] utilizationCountMissions 33
scalar OsgEarthNet.uav[32] utilizationCountManeuversMission 527
scalar OsgEarthNet.uav[32] utilizationCountManeuversMaintenance 66
scalar OsgEarthNet.uav[32] utilizationCountChargeState 33
scalar OsgEarthNet.uav[32] utilizationCountOverdrawnAfterMission 0
scalar OsgEarthNet.uav[32] utilizationCountIdleState 33
scalar OsgEarthNet.uav[32] utilizationFail 0
scalar OsgEarthNet.uav[32] simulationTime 259200
scalar OsgEarthNet.uav[33] utilizationSecMission 25554.731572708
scalar OsgEarthNet.uav[33] utilizationSecMaintenance 20151.367663109
scalar OsgEarthNet.uav[33] utilizationSecCharge 162231.89076418
scalar OsgEarthNet.uav[33] utilizationSecIdle 51262.009
scalar OsgEarthNet.uav[33] utilizationEnergyMission 123488.98799896
scalar OsgEarthNet.uav[33] utilizationEnergyMaintenance 93943.739116669
scalar OsgEarthNet.uav[33] utilizationEnergyCharge 213130.02966309
scalar OsgEarthNet.uav[33] utilizationEnergyOverdrawMission 0
scalar OsgEarthNet.uav[33] utilizationEnergyOverdrawMaintenance 0
scalar OsgEarthNet.uav[33] utilizationCountMissions 48
scalar OsgEarthNet.uav[33] utilizationCountManeuversMission 765
scalar OsgEarthNet.uav[33] utilizationCountManeuversMaintenance 96
scalar OsgEarthNet.uav[33] utilizationCountChargeState 48
scalar OsgEarthNet.uav[33] utilizationCountOverdrawnAfterMission 0
scalar OsgEarthNet.uav[33] utilizationCountIdleState 48
scalar OsgEarthNet.uav[33] utilizationFail 0
scalar OsgEarthNet.uav[33] simulationTime 259200
scalar OsgEarthNet.uav[34] utilizationSecMission 25605.229291534
scalar OsgEarthNet.uav[34] utilizationSecMaintenance 21898.451357763
scalar OsgEarthNet.uav[34] utilizationSecCharge 169835.26252521
scalar OsgEarthNet.uav[34] utilizationSecIdle 41861.055825492
scalar OsgEarthNet.uav[34] utilizationEnergyMission 124258.91761017
scalar OsgEarthNet.uav[34] utilizationEnergyMaintenance 100864.21149826
scalar OsgEarthNet.uav[34] utilizationEnergyCharge 222300.45300293
scalar OsgEarthNet.uav[34] utilizationEnergyOverdrawMission 0
scalar OsgEarthNet.uav[34] utilizationEnergyOverdrawMaintenance 0
scalar OsgEarthNet.uav[34] utilizationCountMissions 51
scalar OsgEarthNet.uav[34] utilizationCountManeuversMission 845
scalar OsgEarthNet.uav[34] utilizationCountManeuversMaintenance 102
scalar OsgEarthNet.uav[34] utilizationCountChargeState 51
scalar OsgEarthNet.uav[34] utilizationCountOverdrawnAfterMission 0
scalar OsgEarthNet.uav[34] utilizationCountIdleState 51
scalar OsgEarthNet.uav[34] utilizationFail 0
scalar OsgEarthNet.uav[34] simulationTime 259200
scalar OsgEarthNet.uav[35] utilizationSecMission 1330.2047274783
scalar OsgEarthNet.uav[35] utilizationSecMaintenance 1526.525816602
scalar OsgEarthNet.uav[35] utilizationSecCharge 7533.225908505
scalar OsgEarthNet.uav[35] utilizationSecIdle 248810.04254741
scalar OsgEarthNet.uav[35] utilizationEnergyMission 6831.4776306152
scalar OsgEarthNet.uav[35] utilizationEnergyMaintenance 7008.3378486633
scalar OsgEarthNet.uav[35] utilizationEnergyCharge 10185.213623047
scalar OsgEarthNet.uav[35] utilizationEnergyOverdrawMission 0
scalar OsgEarthNet.uav[35] utilizationEnergyOverdrawMaintenance 0
scalar OsgEarthNet.uav[35] utilizationCountMissions 3
scalar OsgEarthNet.uav[35] utilizationCountManeuversMission 40
scalar OsgEarthNet.uav[35] utilizationCountManeuversMaintenance 6
scalar OsgEarthNet.uav[35] utilizationCountChargeState 3
scalar OsgEarthNet.uav[35] utilizationCountOverdrawnAfterMission 0
scalar OsgEarthNet.uav[35] utilizationCountIdleState 3
scalar OsgEarthNet.uav[35] utilizationFail 0
scalar OsgEarthNet.uav[35] simulationTime 259200
scalar OsgEarthNet.uav[36] utilizationSecMission 536.06111026321
scalar OsgEarthNet.uav[36] utilizationSecMaintenance 387.76056727994
scalar OsgEarthNet.uav[36] utilizationSecCharge 3430
scalar OsgEarthNet.uav[36] utilizationSecIdle 254846.17732246
scalar OsgEarthNet.uav[36] utilizationEnergyMission 2564.3584747314
scalar OsgEarthNet.uav[36] utilizationEnergyMaintenance 1958.2870101929
scalar OsgEarthNet.uav[36] utilizationEnergyCharge 4522.6440429688
scalar OsgEarthNet.uav[36] utilizationEnergyOverdrawMission 0
scalar OsgEarthNet.uav[36] utilizationEnergyOverdrawMaintenance 0
scalar OsgEarthNet.uav[36] utilizationCountMissions 1
scalar OsgEarthNet.uav[36] utilizationCountManeuversMission 8
scalar OsgEarthNet.uav[36] utilizationCountManeuversMaintenance 2
scalar OsgEarthNet.uav[36] utilizationCountChargeState 1
scalar OsgEarthNet.uav[36] utilizationCountOverdrawnAfterMission 0
scalar OsgEarthNet.uav[36] utilizationCountIdleState 2
scalar OsgEarthNet.uav[36] utilizationFail 0
scalar OsgEarthNet.uav[36] simulationTime 259200
scalar OsgEarthNet.uav[37] utilizationSecMission 24416.395427327
scalar OsgEarthNet.uav[37] utilizationSecMaintenance 21871.595572673
scalar OsgEarthNet.uav[37] utilizationSecCharge 166100
scalar OsgEarthNet.uav[37] utilizationSecIdle 46812.008
scalar OsgEarthNet.uav[37] utilizationEnergyMission 117529.07599258
scalar OsgEarthNet.uav[37] utilizationEnergyMaintenance 101316.06838599
scalar OsgEarthNet.uav[37] utilizationEnergyCharge 218048.65600586
scalar OsgEarthNet.uav[37] utilizationEnergyOverdrawMission 0
scalar OsgEarthNet.uav[37] utilizationEnergyOverdrawMaintenance 0
scalar OsgEarthNet.uav[37] utilizationCountMissions 49
scalar OsgEarthNet.uav[37] utilizationCountManeuversMission 761
scalar OsgEarthNet.uav[37] utilizationCountManeuversMaintenance 99
scalar OsgEarthNet.uav[37] utilizationCountChargeState 49
scalar OsgEarthNet.uav[37] utilizationCountOverdrawnAfterMission 0
scalar OsgEarthNet.uav[37] utilizationCountIdleState 50
scalar OsgEarthNet.uav[37] utilizationFail 0
scalar OsgEarthNet.uav[37] simulationTime 259200
scalar OsgEarthNet.uav[38] utilizationSecMission 28372.900558522
scalar OsgEarthNet.uav[38] utilizationSecMaintenance 22367.222587141
scalar OsgEarthNet.uav[38] utilizationSecCharge 182017.87585434
scalar OsgEarthNet.uav[38] utilizationSecIdle 26442
scalar OsgEarthNet.uav[38] utilizationEnergyMission 135606.26965714
scalar OsgEarthNet.uav[38] utilizationEnergyMaintenance 104607.76845932
scalar OsgEarthNet.uav[38] utilizationEnergyCharge 239710.24682617
scalar OsgEarthNet.uav[38] utilizationEnergyOverdrawMission 0
scalar OsgEarthNet.uav[38] utilizationEnergyOverdrawMaintenance 0
scalar OsgEarthNet.uav[38] utilizationCountMissions 54
scalar OsgEarthNet.uav[38] utilizationCountManeuversMission 823
scalar OsgEarthNet.uav[38] utilizationCountManeuversMaintenance 108
scalar OsgEarthNet.uav[38] utilizationCountChargeState 54
scalar OsgEarthNet.uav[38] utilizationCountOverdrawnAfterMission 0
scalar OsgEarthNet.uav[38] utilizationCountIdleState 54
scalar OsgEarthNet.uav[38] utilizationFail 0
scalar OsgEarthNet.uav[38] simulationTime 259200
scalar OsgEarthNet.uav[39] utilizationSecMission 23875.245993814
scalar OsgEarthNet.uav[39] utilizationSecMaintenance 26042.748006186
scalar OsgEarthNet.uav[39] utilizationSecCharge 181260
scalar OsgEarthNet.uav[39] utilizationSecIdle 28022.005
scalar OsgEarthNet.uav[39] utilizationEnergyMission 117390.22838974
scalar OsgEarthNet.uav[39] utilizationEnergyMaintenance 119430.55084179
scalar OsgEarthNet.uav[39] utilizationEnergyCharge 237455.57641602
scalar OsgEarthNet.uav[39] utilizationEnergyOverdrawMission 0
scalar OsgEarthNet.uav[39] utilizationEnergyOverdrawMaintenance 0
scalar OsgEarthNet.uav[39] utilizationCountMissions 53
scalar OsgEarthNet.uav[39] utilizationCountManeuversMission 840
scalar OsgEarthNet.uav[39] utilizationCountManeuversMaintenance 107
scalar OsgEarthNet.uav[39] utilizationCountChargeState 53
scalar OsgEarthNet.uav[39] utilizationCountOverdrawnAfterMission 0
scalar OsgEarthNet.uav[39] utilizationCountIdleState 54
scalar OsgEarthNet.uav[39] utilizationFail 0
scalar OsgEarthNet.uav[39] simulationTime 259200
scalar OsgEarthNet.uav[40] utilizationSecMission 25982.845462633
scalar OsgEarthNet.uav[40] utilizationSecMaintenance 21657.205603993
scalar OsgEarthNet.uav[40] utilizationSecCharge 172689.37749474
scalar OsgEarthNet.uav[40] utilizationSecIdle 38870.570438634
scalar OsgEarthNet.uav[40] utilizationEnergyMission 126279.55809021
scalar OsgEarthNet.uav[40] utilizationEnergyMaintenance 101858.48638153
scalar OsgEarthNet.uav[40] utilizationEnergyCharge 227608.81933594
scalar OsgEarthNet.uav[40] utilizationEnergyOverdrawMission 0
scalar OsgEarthNet.uav[40] utilizationEnergyOverdrawMaintenance 0
scalar OsgEarthNet.uav[40] utilizationCountMissions 51
scalar OsgEarthNet.uav[40] utilizationCountManeuversMission 812
scalar OsgEarthNet.uav[40] utilizationCountManeuversMaintenance 102
scalar OsgEarthNet.uav[40] utilizationCountChargeState 51
scalar OsgEarthNet.uav[40] utilizationCountOverdrawnAfterMission 0
scalar OsgEarthNet.uav[40] utilizationCountIdleState 51
scalar OsgEarthNet.uav[40] utilizationFail 0
scalar OsgEarthNet.uav[40] simulationTime 259200
scalar OsgEarthNet.uav[41] utilizationSecMission 340
scalar OsgEarthNet.uav[41] utilizationSecMaintenance 507.16988087142
scalar OsgEarthNet.uav[41] utilizationSecCharge 3300
scalar OsgEarthNet.uav[41] utilizationSecIdle 255052.82911913
scalar OsgEarthNet.uav[41] utilizationEnergyMission 1725.7929191589
scalar OsgEarthNet.uav[41] utilizationEnergyMaintenance 2411.2493400574
scalar OsgEarthNet.uav[41] utilizationEnergyCharge 4291.9672851562
scalar OsgEarthNet.uav[41] utilizationEnergyOverdrawMission 0
scalar OsgEarthNet.uav[41] utilizationEnergyOverdrawMaintenance 0
scalar OsgEarthNet.uav[41] utilizationCountMissions 1
scalar OsgEarthNet.uav[41] utilizationCountManeuversMission 17
scalar OsgEarthNet.uav[41] utilizationCountManeuversMaintenance 2
scalar OsgEarthNet.uav[41] utilizationCountChargeState 1
scalar OsgEarthNet.uav[41] utilizationCountOverdrawnAfterMission 0
scalar OsgEarthNet.uav[41] utilizationCountIdleState 2
scalar OsgEarthNet.uav[41] utilizationFail 0
scalar OsgEarthNet.uav[41] simulationTime 259200
scalar OsgEarthNet.uav[42] utilizationSecMission 19606.71866852
scalar OsgEarthNet.uav[42] utilizationSecMaintenance 15098.953404603
scalar OsgEarthNet.uav[42] utilizationSecCharge 123504.86857879
scalar OsgEarthNet.uav[42] utilizationSecIdle 100989.45834809
scalar OsgEarthNet.uav[42] utilizationEnergyMission 94370.119701385
scalar OsgEarthNet.uav[42] utilizationEnergyMaintenance 70145.561939239
scalar OsgEarthNet.uav[42] utilizationEnergyCharge 162161.69042969
scalar OsgEarthNet.uav[42] utilizationEnergyOverdrawMission 0
scalar OsgEarthNet.uav[42] utilizationEnergyOverdrawMaintenance 0
scalar OsgEarthNet.uav[42] utilizationCountMissions 37
scalar OsgEarthNet.uav[42] utilizationCountManeuversMission 576
scalar OsgEarthNet.uav[42] utilizationCountManeuversMaintenance 74
scalar OsgEarthNet.uav[42] utilizationCountChargeState 37
scalar OsgEarthNet.uav[42] utilizationCountOverdrawnAfterMission 0
scalar OsgEarthNet.uav[42] utilizationCountIdleState 37
scalar OsgEarthNet.uav[42] utilizationFail 0
scalar OsgEarthNet.uav[42] simulationTime 259200
scalar OsgEarthNet.uav[43] utilizationSecMission 994.00169469977
scalar OsgEarthNet.uav[43] utilizationSecMaintenance 796.39442016458
scalar OsgEarthNet.uav[43] utilizationSecCharge 6590
scalar OsgEarthNet.uav[43] utilizationSecIdle 250819.60288514
scalar OsgEarthNet.uav[43] utilizationEnergyMission 4670.4285202026
scalar OsgEarthNet.uav[43] utilizationEnergyMaintenance 3777.3955917358
scalar OsgEarthNet.uav[43] utilizationEnergyCharge 8581.3017578125
scalar OsgEarthNet.uav[43] utilizationEnergyOverdrawMission 0
scalar OsgEarthNet.uav[43] utilizationEnergyOverdrawMaintenance 0
scalar OsgEarthNet.uav[43] utilizationCountMissions 2
scalar OsgEarthNet.uav[43] utilizationCountManeuversMission 28
scalar OsgEarthNet.uav[43] utilizationCountManeuversMaintenance 4
scalar OsgEarthNet.uav[43] utilizationCountChargeState 2
scalar OsgEarthNet.uav[43] utilizationCountOverdrawnAfterMission 0
scalar OsgEarthNet.uav[43] utilizationCountIdleState 3
scalar OsgEarthNet.uav[43] utilizationFail 0
scalar OsgEarthNet.uav[43] simulationTime 259200
scalar OsgEarthNet.uav[44] utilizationSecMission 2522.3783977207
scalar OsgEarthNet.uav[44] utilizationSecMaintenance 2981.3849642896
scalar OsgEarthNet.uav[44] utilizationSecCharge 17360.790549299
scalar OsgEarthNet.uav[44] utilizationSecIdle 236335.44508869
scalar OsgEarthNet.uav[44] utilizationEnergyMission 12631.016067505
scalar OsgEarthNet.uav[44] utilizationEnergyMaintenance 14582.292095184
scalar OsgEarthNet.uav[44] utilizationEnergyCharge 22823.207275391
scalar OsgEarthNet.uav[44] utilizationEnergyOverdrawMission 0
scalar OsgEarthNet.uav[44] utilizationEnergyOverdrawMaintenance 0
scalar OsgEarthNet.uav[44] utilizationCountMissions 6
scalar OsgEarthNet.uav[44] utilizationCountManeuversMission 86
scalar OsgEarthNet.uav[44] utilizationCountManeuversMaintenance 12
scalar OsgEarthNet.uav[44] utilizationCountChargeState 6
scalar OsgEarthNet.uav[44] utilizationCountOverdrawnAfterMission 0
scalar OsgEarthNet.uav[44] utilizationCountIdleState 6
scalar OsgEarthNet.uav[44] utilizationFail 0
scalar OsgEarthNet.uav[44] simulationTime 259200
scalar OsgEarthNet.uav[45] utilizationSecMission 24191.350756774
scalar OsgEarthNet.uav[45] utilizationSecMaintenance 22126.645243226
scalar OsgEarthNet.uav[45] utilizationSecCharge 168040
scalar OsgEarthNet.uav[45] utilizationSecIdle 44842.003
scalar OsgEarthNet.uav[45] utilizationEnergyMission 118941.79103736
scalar OsgEarthNet.uav[45] utilizationEnergyMaintenance 103275.08667374
scalar OsgEarthNet.uav[45] utilizationEnergyCharge 219008.48291016
scalar OsgEarthNet.uav[45] utilizationEnergyOverdrawMission 0
scalar OsgEarthNet.uav[45] utilizationEnergyOverdrawMaintenance 0
scalar OsgEarthNet.uav[45] utilizationCountMissions 50
scalar OsgEarthNet.uav[45] utilizationCountManeuversMission 806
scalar OsgEarthNet.uav[45] utilizationCountManeuversMaintenance 101
scalar OsgEarthNet.uav[45] utilizationCountChargeState 50
scalar OsgEarthNet.uav[45] utilizationCountOverdrawnAfterMission 0
scalar OsgEarthNet.uav[45] utilizationCountIdleState 51
scalar OsgEarthNet.uav[45] utilizationFail 0
scalar OsgEarthNet.uav[45] simulationTime 259200
scalar OsgEarthNet.uav[46] utilizationSecMission 19389.655863703
scalar OsgEarthNet.uav[46] utilizationSecMaintenance 18623.911875074
scalar OsgEarthNet.uav[46] utilizationSecCharge 136760
scalar OsgEarthNet.uav[46] utilizationSecIdle 84426.431261223
scalar OsgEarthNet.uav[46] utilizationEnergyMission 94284.821086884
scalar OsgEarthNet.uav[46] utilizationEnergyMaintenance 85751.512763292
scalar OsgEarthNet.uav[46] utilizationEnergyCharge 179784.72363281
scalar OsgEarthNet.uav[46] utilizationEnergyOverdrawMission 0
scalar OsgEarthNet.uav[46] utilizationEnergyOverdrawMaintenance 0
scalar OsgEarthNet.uav[46] utilizationCountMissions 40
scalar OsgEarthNet.uav[46] utilizationCountManeuversMission 626
scalar OsgEarthNet.uav[46] utilizationCountManeuversMaintenance 81
scalar OsgEarthNet.uav[46] utilizationCountChargeState 40
scalar OsgEarthNet.uav[46] utilizationCountOverdrawnAfterMission 0
scalar OsgEarthNet.uav[46] utilizationCountIdleState 40
scalar OsgEarthNet.uav[46] utilizationFail 0
scalar OsgEarthNet.uav[46] simulationTime 259200
scalar OsgEarthNet.uav[47] utilizationSecMission 25781.767156156
scalar OsgEarthNet.uav[47] utilizationSecMaintenance 21357.739736274
scalar OsgEarthNet.uav[47] utilizationSecCharge 166740.47380313
scalar OsgEarthNet.uav[47] utilizationSecIdle 45320.018304444
scalar OsgEarthNet.uav[47] utilizationEnergyMission 122593.98341751
scalar OsgEarthNet.uav[47] utilizationEnergyMaintenance 98908.439189911
scalar OsgEarthNet.uav[47] utilizationEnergyCharge 218851.01501465
scalar OsgEarthNet.uav[47] utilizationEnergyOverdrawMission 0
scalar OsgEarthNet.uav[47] utilizationEnergyOverdrawMaintenance 0
scalar OsgEarthNet.uav[47] utilizationCountMissions 50
scalar OsgEarthNet.uav[47] utilizationCountManeuversMission 796
scalar OsgEarthNet.uav[47] utilizationCountManeuversMaintenance 100
scalar OsgEarthNet.uav[47] utilizationCountChargeState 50
scalar OsgEarthNet.uav[47] utilizationCountOverdrawnAfterMission 0
scalar OsgEarthNet.uav[47] utilizationCountIdleState 50
scalar OsgEarthNet.uav[47] utilizationFail 0
scalar OsgEarthNet.uav[47] simulationTime 259200
scalar OsgEarthNet.uav[48] utilizationSecMission 26304.151664375
scalar OsgEarthNet.uav[48] utilizationSecMaintenance 21114.912397076
scalar OsgEarthNet.uav[48] utilizationSecCharge 168879.26188917
scalar OsgEarthNet.uav[48] utilizationSecIdle 42901.673049383
scalar OsgEarthNet.uav[48] utilizationEnergyMission 125100.83927536
scalar OsgEarthNet.uav[48] utilizationEnergyMaintenance 97934.317638397
scalar OsgEarthNet.uav[48] utilizationEnergyCharge 220849.99963379
scalar OsgEarthNet.uav[48] utilizationEnergyOverdrawMission 0
scalar OsgEarthNet.uav[48] utilizationEnergyOverdrawMaintenance 0
scalar OsgEarthNet.uav[48] utilizationCountMissions 51
scalar OsgEarthNet.uav[48] utilizationCountManeuversMission 817
scalar OsgEarthNet.uav[48] utilizationCountManeuversMaintenance 102
scalar OsgEarthNet.uav[48] utilizationCountChargeState 51
scalar OsgEarthNet.uav[48] utilizationCountOverdrawnAfterMission 0
scalar OsgEarthNet.uav[48] utilizationCountIdleState 51
scalar OsgEarthNet.uav[48] utilizationFail 0
scalar OsgEarthNet.uav[48] simulationTime 259200
scalar OsgEarthNet.uav[49] utilizationSecMission 4159.6692711745
scalar OsgEarthNet.uav[49] utilizationSecMaintenance 4989.1960966346
scalar OsgEarthNet.uav[49] utilizationSecCharge 33720
scalar OsgEarthNet.uav[49] utilizationSecIdle 216331.13363219
scalar OsgEarthNet.uav[49] utilizationEnergyMission 20796.309844971
scalar OsgEarthNet.uav[49] utilizationEnergyMaintenance 23534.673576355
scalar OsgEarthNet.uav[49] utilizationEnergyCharge 44347.401367188
scalar OsgEarthNet.uav[49] utilizationEnergyOverdrawMission 0
scalar OsgEarthNet.uav[49] utilizationEnergyOverdrawMaintenance 0
scalar OsgEarthNet.uav[49] utilizationCountMissions 10
scalar OsgEarthNet.uav[49] utilizationCountManeuversMission 180
scalar OsgEarthNet.uav[49] utilizationCountManeuversMaintenance 20
scalar OsgEarthNet.uav[49] utilizationCountChargeState 10
scalar OsgEarthNet.uav[49] utilizationCountOverdrawnAfterMission 0
scalar OsgEarthNet.uav[49] utilizationCountIdleState 11
scalar OsgEarthNet.uav[49] utilizationFail 0
scalar OsgEarthNet.uav[49] simulationTime 259200
scalar OsgEarthNet.uav[50] utilizationSecMission 22306.364997886
scalar OsgEarthNet.uav[50] utilizationSecMaintenance 21557.882192863
scalar OsgEarthNet.uav[50] utilizationSecCharge 159970
scalar OsgEarthNet.uav[50] utilizationSecIdle 55365.751809251
scalar OsgEarthNet.uav[50] utilizationEnergyMission 110753.07798767
scalar OsgEarthNet.uav[50] utilizationEnergyMaintenance 100310.86703491
scalar OsgEarthNet.uav[50] utilizationEnergyCharge 209899.32861328
scalar OsgEarthNet.uav[50] utilizationEnergyOverdrawMission 0
scalar OsgEarthNet.uav[50] utilizationEnergyOverdrawMaintenance 0
scalar OsgEarthNet.uav[50] utilizationCountMissions 47
scalar OsgEarthNet.uav[50] utilizationCountManeuversMission 789
scalar OsgEarthNet.uav[50] utilizationCountManeuversMaintenance 94
scalar OsgEarthNet.uav[50] utilizationCountChargeState 47
scalar OsgEarthNet.uav[50] utilizationCountOverdrawnAfterMission 0
scalar OsgEarthNet.uav[50] utilizationCountIdleState 47
scalar OsgEarthNet.uav[50] utilizationFail 0
scalar OsgEarthNet.uav[50] simulationTime 259200
scalar OsgEarthNet.uav[51] utilizationSecMission 12062.687268753
scalar OsgEarthNet.uav[51] utilizationSecMaintenance 10362.961779694
scalar OsgEarthNet.uav[51] utilizationSecCharge 77734.34201697
scalar OsgEarthNet.uav[51] utilizationSecIdle 159040.00793458
scalar OsgEarthNet.uav[51] utilizationEnergyMission 58978.637599945
scalar OsgEarthNet.uav[51] utilizationEnergyMaintenance 47549.059322357
scalar OsgEarthNet.uav[51] utilizationEnergyCharge 101420.54721069
scalar OsgEarthNet.uav[51] utilizationEnergyOverdrawMission 0
scalar OsgEarthNet.uav[51] utilizationEnergyOverdrawMaintenance 0
scalar OsgEarthNet.uav[51] utilizationCountMissions 24
scalar OsgEarthNet.uav[51] utilizationCountManeuversMission 423
scalar OsgEarthNet.uav[51] utilizationCountManeuversMaintenance 48
scalar OsgEarthNet.uav[51] utilizationCountChargeState 24
scalar OsgEarthNet.uav[51] utilizationCountOverdrawnAfterMission 0
scalar OsgEarthNet.uav[51] utilizationCountIdleState 24
scalar OsgEarthNet.uav[51] utilizationFail 0
scalar OsgEarthNet.uav[51] simulationTime 259200
scalar OsgEarthNet.uav[52] utilizationSecMission 28283.533778948
scalar OsgEarthNet.uav[52] utilizationSecMaintenance 21263.718947559
scalar OsgEarthNet.uav[52] utilizationSecCharge 179128.24833232
scalar OsgEarthNet.uav[52] utilizationSecIdle 30524.497941176
scalar OsgEarthNet.uav[52] utilizationEnergyMission 136579.86535645
scalar OsgEarthNet.uav[52] utilizationEnergyMaintenance 97731.403633118
scalar OsgEarthNet.uav[52] utilizationEnergyCharge 235177.11279297
scalar OsgEarthNet.uav[52] utilizationEnergyOverdrawMission 0
scalar OsgEarthNet.uav[52] utilizationEnergyOverdrawMaintenance 0
scalar OsgEarthNet.uav[52] utilizationCountMissions 53
scalar OsgEarthNet.uav[52] utilizationCountManeuversMission 892
scalar OsgEarthNet.uav[52] utilizationCountManeuversMaintenance 106
scalar OsgEarthNet.uav[52] utilizationCountChargeState 53
scalar OsgEarthNet.uav[52] utilizationCountOverdrawnAfterMission 0
scalar OsgEarthNet.uav[52] utilizationCountIdleState 52
scalar OsgEarthNet.uav[52] utilizationFail 0
scalar OsgEarthNet.uav[52] simulationTime 259200
scalar OsgEarthNet.uav[53] utilizationSecMission 22126.623704428
scalar OsgEarthNet.uav[53] utilizationSecMaintenance 17353.389459082
scalar OsgEarthNet.uav[53] utilizationSecCharge 143470
scalar OsgEarthNet.uav[53] utilizationSecIdle 76249.985836491
scalar OsgEarthNet.uav[53] utilizationEnergyMission 107096.69742203
scalar OsgEarthNet.uav[53] utilizationEnergyMaintenance 81001.771606445
scalar OsgEarthNet.uav[53] utilizationEnergyCharge 188233.79223633
scalar OsgEarthNet.uav[53] utilizationEnergyOverdrawMission 0
scalar OsgEarthNet.uav[53] utilizationEnergyOverdrawMaintenance 0
scalar OsgEarthNet.uav[53] utilizationCountMissions 42
scalar OsgEarthNet.uav[53] utilizationCountManeuversMission 606
scalar OsgEarthNet.uav[53] utilizationCountManeuversMaintenance 84
scalar OsgEarthNet.uav[53] utilizationCountChargeState 42
scalar OsgEarthNet.uav[53] utilizationCountOverdrawnAfterMission 0
scalar OsgEarthNet.uav[53] utilizationCountIdleState 41
scalar OsgEarthNet.uav[53] utilizationFail 0
scalar OsgEarthNet.uav[53] simulationTime 259200
scalar OsgEarthNet.uav[54] utilizationSecMission 28688.073242598
scalar OsgEarthNet.uav[54] utilizationSecMaintenance 20699.918757402
scalar OsgEarthNet.uav[54] utilizationSecCharge 177070
scalar OsgEarthNet.uav[54] utilizationSecIdle 32742.007
scalar OsgEarthNet.uav[54] utilizationEnergyMission 138051.45639801
scalar OsgEarthNet.uav[54] utilizationEnergyMaintenance 96822.488136489
scalar OsgEarthNet.uav[54] utilizationEnergyCharge 232868.09130859
scalar OsgEarthNet.uav[54] utilizationEnergyOverdrawMission 0
scalar OsgEarthNet.uav[54] utilizationEnergyOverdrawMaintenance 0
scalar OsgEarthNet.uav[54] utilizationCountMissions 53
scalar OsgEarthNet.uav[54] utilizationCountManeuversMission 895
scalar OsgEarthNet.uav[54] utilizationCountManeuversMaintenance 106
scalar OsgEarthNet.uav[54] utilizationCountChargeState 52
scalar OsgEarthNet.uav[54] utilizationCountOverdrawnAfterMission 0
scalar OsgEarthNet.uav[54] utilizationCountIdleState 53
scalar OsgEarthNet.uav[54] utilizationFail 0
scalar OsgEarthNet.uav[54] simulationTime 259200
scalar OsgEarthNet.uav[55] utilizationSecMission 27059.287705346
scalar OsgEarthNet.uav[55] utilizationSecMaintenance 23168.091916823
scalar OsgEarthNet.uav[55] utilizationSecCharge 184540.61837783
scalar OsgEarthNet.uav[55] utilizationSecIdle 24432.001
scalar OsgEarthNet.uav[55] utilizationEnergyMission 133522.74475479
scalar OsgEarthNet.uav[55] utilizationEnergyMaintenance 109618.63647842
scalar OsgEarthNet.uav[55] utilizationEnergyCharge 241904.96899414
scalar OsgEarthNet.uav[55] utilizationEnergyOverdrawMission 0
scalar OsgEarthNet.uav[55] utilizationEnergyOverdrawMaintenance 0
scalar OsgEarthNet.uav[55] utilizationCountMissions 54
scalar OsgEarthNet.uav[55] utilizationCountManeuversMission 953
scalar OsgEarthNet.uav[55] utilizationCountManeuversMaintenance 108
scalar OsgEarthNet.uav[55] utilizationCountChargeState 54
scalar OsgEarthNet.uav[55] utilizationCountOverdrawnAfterMission 0
scalar OsgEarthNet.uav[55] utilizationCountIdleState 52
scalar OsgEarthNet.uav[55] utilizationFail 0
scalar OsgEarthNet.uav[55] simulationTime 259200
scalar OsgEarthNet.uav[56] utilizationSecMission 22705.6995593
scalar OsgEarthNet.uav[56] utilizationSecMaintenance 19612.2874407
scalar OsgEarthNet.uav[56] utilizationSecCharge 152390
scalar OsgEarthNet.uav[56] utilizationSecIdle 64492.012
scalar OsgEarthNet.uav[56] utilizationEnergyMission 109950.99501038
scalar OsgEarthNet.uav[56] utilizationEnergyMaintenance 91830.519081335
scalar OsgEarthNet.uav[56] utilizationEnergyCharge 200046.51538086
scalar OsgEarthNet.uav[56] utilizationEnergyOverdrawMission 0
scalar OsgEarthNet.uav[56] utilizationEnergyOverdrawMaintenance 0
scalar OsgEarthNet.uav[56] utilizationCountMissions 45
scalar OsgEarthNet.uav[56] utilizationCountManeuversMission 706
scalar OsgEarthNet.uav[56] utilizationCountManeuversMaintenance 91
scalar OsgEarthNet.uav[56] utilizationCountChargeState 45
scalar OsgEarthNet.uav[56] utilizationCountOverdrawnAfterMission 0
scalar OsgEarthNet.uav[56] utilizationCountIdleState 43
scalar OsgEarthNet.uav[56] utilizationFail 0
scalar OsgEarthNet.uav[56] simulationTime 259200
scalar OsgEarthNet.uav[57] utilizationSecMission 19694.651446641
scalar OsgEarthNet.uav[57] utilizationSecMaintenance 20960.087028466
scalar OsgEarthNet.uav[57] utilizationSecCharge 147509.8124362
scalar OsgEarthNet.uav[57] utilizationSecIdle 71035.448088691
scalar OsgEarthNet.uav[57] utilizationEnergyMission 95166.184509277
scalar OsgEarthNet.uav[57] utilizationEnergyMaintenance 98395.676300049
scalar OsgEarthNet.uav[57] utilizationEnergyCharge 194084.27954102
scalar OsgEarthNet.uav[57] utilizationEnergyOverdrawMission 0
scalar OsgEarthNet.uav[57] utilizationEnergyOverdrawMaintenance 0
scalar OsgEarthNet.uav[57] utilizationCountMissions 44
scalar OsgEarthNet.uav[57] utilizationCountManeuversMission 703
scalar OsgEarthNet.uav[57] utilizationCountManeuversMaintenance 88
scalar OsgEarthNet.uav[57] utilizationCountChargeState 44
scalar OsgEarthNet.uav[57] utilizationCountOverdrawnAfterMission 0
scalar OsgEarthNet.uav[57] utilizationCountIdleState 42
scalar OsgEarthNet.uav[57] utilizationFail 0
scalar OsgEarthNet.uav[57] simulationTime 259200
scalar OsgEarthNet.uav[58] utilizationSecMission 24288.583147031
scalar OsgEarthNet.uav[58] utilizationSecMaintenance 21023.150087691
scalar OsgEarthNet.uav[58] utilizationSecCharge 165906.26176528
scalar OsgEarthNet.uav[58] utilizationSecIdle 47982.004
scalar OsgEarthNet.uav[58] utilizationEnergyMission 119889.34833908
scalar OsgEarthNet.uav[58] utilizationEnergyMaintenance 98956.566295624
scalar OsgEarthNet.uav[58] utilizationEnergyCharge 218191.7121582
scalar OsgEarthNet.uav[58] utilizationEnergyOverdrawMission 0
scalar OsgEarthNet.uav[58] utilizationEnergyOverdrawMaintenance 0
scalar OsgEarthNet.uav[58] utilizationCountMissions 49
scalar OsgEarthNet.uav[58] utilizationCountManeuversMission 751
scalar OsgEarthNet.uav[58] utilizationCountManeuversMaintenance 98
scalar OsgEarthNet.uav[58] utilizationCountChargeState 49
scalar OsgEarthNet.uav[58] utilizationCountOverdrawnAfterMission 0
scalar OsgEarthNet.uav[58] utilizationCountIdleState 48
scalar OsgEarthNet.uav[58] utilizationFail 0
scalar OsgEarthNet.uav[58] simulationTime 259200
scalar OsgEarthNet.uav[59] utilizationSecMission 20941.410074868
scalar OsgEarthNet.uav[59] utilizationSecMaintenance 21360.264937084
scalar OsgEarthNet.uav[59] utilizationSecCharge 152001.67621606
scalar OsgEarthNet.uav[59] utilizationSecIdle 64896.647771988
scalar OsgEarthNet.uav[59] utilizationEnergyMission 99690.752677917
scalar OsgEarthNet.uav[59] utilizationEnergyMaintenance 100091.41677094
scalar OsgEarthNet.uav[59] utilizationEnergyCharge 200357.92382812
scalar OsgEarthNet.uav[59] utilizationEnergyOverdrawMission 0
scalar OsgEarthNet.uav[59] utilizationEnergyOverdrawMaintenance 0
scalar OsgEarthNet.uav[59] utilizationCountMissions 45
scalar OsgEarthNet.uav[59] utilizationCountManeuversMission 527
scalar OsgEarthNet.uav[59] utilizationCountManeuversMaintenance 90
scalar OsgEarthNet.uav[59] utilizationCountChargeState 45
scalar OsgEarthNet.uav[59] utilizationCountOverdrawnAfterMission 0
scalar OsgEarthNet.uav[59] utilizationCountIdleState 42
scalar OsgEarthNet.uav[59] utilizationFail 0
scalar OsgEarthNet.uav[59] simulationTime 259200
scalar OsgEarthNet.uav[60] utilizationSecMission 26298.268083706
scalar OsgEarthNet.uav[60] utilizationSecMaintenance 23218.961980733
scalar OsgEarthNet.uav[60] utilizationSecCharge 179490
scalar OsgEarthNet.uav[60] utilizationSecIdle 30192.768935561
scalar OsgEarthNet.uav[60] utilizationEnergyMission 128028.63316727
scalar OsgEarthNet.uav[60] utilizationEnergyMaintenance 105814.97170258
scalar OsgEarthNet.uav[60] utilizationEnergyCharge 235444.79589844
scalar OsgEarthNet.uav[60] utilizationEnergyOverdrawMission 0
scalar OsgEarthNet.uav[60] utilizationEnergyOverdrawMaintenance 0
scalar OsgEarthNet.uav[60] utilizationCountMissions 53
scalar OsgEarthNet.uav[60] utilizationCountManeuversMission 847
scalar OsgEarthNet.uav[60] utilizationCountManeuversMaintenance 106
scalar OsgEarthNet.uav[60] utilizationCountChargeState 53
scalar OsgEarthNet.uav[60] utilizationCountOverdrawnAfterMission 0
scalar OsgEarthNet.uav[60] utilizationCountIdleState 52
scalar OsgEarthNet.uav[60] utilizationFail 0
scalar OsgEarthNet.uav[60] simulationTime 259200
scalar OsgEarthNet.uav[61] utilizationSecMission 21698.761698859
scalar OsgEarthNet.uav[61] utilizationSecMaintenance 19673.817469382
scalar OsgEarthNet.uav[61] utilizationSecCharge 149175.41383176
scalar OsgEarthNet.uav[61] utilizationSecIdle 68652.006
scalar OsgEarthNet.uav[61] utilizationEnergyMission 105835.55150986
scalar OsgEarthNet.uav[61] utilizationEnergyMaintenance 92705.608825684
scalar OsgEarthNet.uav[61] utilizationEnergyCharge 197185.62988281
scalar OsgEarthNet.uav[61] utilizationEnergyOverdrawMission 0
scalar OsgEarthNet.uav[61] utilizationEnergyOverdrawMaintenance 0
scalar OsgEarthNet.uav[61] utilizationCountMissions 44
scalar OsgEarthNet.uav[61] utilizationCountManeuversMission 666
scalar OsgEarthNet.uav[61] utilizationCountManeuversMaintenance 88
scalar OsgEarthNet.uav[61] utilizationCountChargeState 44
scalar OsgEarthNet.uav[61] utilizationCountOverdrawnAfterMission 0
scalar OsgEarthNet.uav[61] utilizationCountIdleState 39
scalar OsgEarthNet.uav[61] utilizationFail 0
scalar OsgEarthNet.uav[61] simulationTime 259200
scalar OsgEarthNet.uav[62] utilizationSecMission 25795.971630363
scalar OsgEarthNet.uav[62] utilizationSecMaintenance 21265.743811212
scalar OsgEarthNet.uav[62] utilizationSecCharge 169220
scalar OsgEarthNet.uav[62] utilizationSecIdle 42918.283558425
scalar OsgEarthNet.uav[62] utilizationEnergyMission 124030.78702927
scalar OsgEarthNet.uav[62] utilizationEnergyMaintenance 98710.371742249
scalar OsgEarthNet.uav[62] utilizationEnergyCharge 223419.3996582
scalar OsgEarthNet.uav[62] utilizationEnergyOverdrawMission 0
scalar OsgEarthNet.uav[62] utilizationEnergyOverdrawMaintenance 200.25389099121
scalar OsgEarthNet.uav[62] utilizationCountMissions 50
scalar OsgEarthNet.uav[62] utilizationCountManeuversMission 833
scalar OsgEarthNet.uav[62] utilizationCountManeuversMaintenance 100
scalar OsgEarthNet.uav[62] utilizationCountChargeState 50
scalar OsgEarthNet.uav[62] utilizationCountOverdrawnAfterMission 1
scalar OsgEarthNet.uav[62] utilizationCountIdleState 45
scalar OsgEarthNet.uav[62] utilizationFail 0
scalar OsgEarthNet.uav[62] simulationTime 259200
scalar OsgEarthNet.uav[63] utilizationSecMission 22637.444358196
scalar OsgEarthNet.uav[63] utilizationSecMaintenance 23448.092241249
scalar OsgEarthNet.uav[63] utilizationSecCharge 165083.50914489
scalar OsgEarthNet.uav[63] utilizationSecIdle 48030.953255665
scalar OsgEarthNet.uav[63] utilizationEnergyMission 110753.25095367
scalar OsgEarthNet.uav[63] utilizationEnergyMaintenance 108454.539814
scalar OsgEarthNet.uav[63] utilizationEnergyCharge 218219.77148438
scalar OsgEarthNet.uav[63] utilizationEnergyOverdrawMission 0
scalar OsgEarthNet.uav[63] utilizationEnergyOverdrawMaintenance 0
scalar OsgEarthNet.uav[63] utilizationCountMissions 49
scalar OsgEarthNet.uav[63] utilizationCountManeuversMission 721
scalar OsgEarthNet.uav[63] utilizationCountManeuversMaintenance 98
scalar OsgEarthNet.uav[63] utilizationCountChargeState 49
scalar OsgEarthNet.uav[63] utilizationCountOverdrawnAfterMission 0
scalar OsgEarthNet.uav[63] utilizationCountIdleState 43
scalar OsgEarthNet.uav[63] utilizationFail 0
scalar OsgEarthNet.uav[63] simulationTime 259200
scalar OsgEarthNet.uav[64] utilizationSecMission 24831.896436715
scalar OsgEarthNet.uav[64] utilizationSecMaintenance 23211.675990454
scalar OsgEarthNet.uav[64] utilizationSecCharge 171160.98048414
scalar OsgEarthNet.uav[64] utilizationSecIdle 39995.446088691
scalar OsgEarthNet.uav[64] utilizationEnergyMission 118937.02725601
scalar OsgEarthNet.uav[64] utilizationEnergyMaintenance 108130.58784485
scalar OsgEarthNet.uav[64] utilizationEnergyCharge 227732.53393555
scalar OsgEarthNet.uav[64] utilizationEnergyOverdrawMission 0
scalar OsgEarthNet.uav[64] utilizationEnergyOverdrawMaintenance 23.439813613892
scalar OsgEarthNet.uav[64] utilizationCountMissions 51
scalar OsgEarthNet.uav[64] utilizationCountManeuversMission 763
scalar OsgEarthNet.uav[64] utilizationCountManeuversMaintenance 102
scalar OsgEarthNet.uav[64] utilizationCountChargeState 51
scalar OsgEarthNet.uav[64] utilizationCountOverdrawnAfterMission 1
scalar OsgEarthNet.uav[64] utilizationCountIdleState 40
scalar OsgEarthNet.uav[64] utilizationFail 0
scalar OsgEarthNet.uav[64] simulationTime 259200
scalar OsgEarthNet.uav[65] utilizationSecMission 25417.95773942
scalar OsgEarthNet.uav[65] utilizationSecMaintenance 23098.264301739
scalar OsgEarthNet.uav[65] utilizationSecCharge 175270
scalar OsgEarthNet.uav[65] utilizationSecIdle 35413.776958841
scalar OsgEarthNet.uav[65] utilizationEnergyMission 123570.7650528
scalar OsgEarthNet.uav[65] utilizationEnergyMaintenance 107746.9565239
scalar OsgEarthNet.uav[65] utilizationEnergyCharge 230088.29345703
scalar OsgEarthNet.uav[65] utilizationEnergyOverdrawMission 0
[...]
scalar OsgEarthNet.uav[81] utilizationCountMissions 59
scalar OsgEarthNet.uav[81] utilizationCountManeuversMission 897
scalar OsgEarthNet.uav[81] utilizationCountManeuversMaintenance 118
scalar OsgEarthNet.uav[81] utilizationCountChargeState 59
scalar OsgEarthNet.uav[81] utilizationCountOverdrawnAfterMission 0
scalar OsgEarthNet.uav[81] utilizationCountIdleState 35
scalar OsgEarthNet.uav[81] utilizationFail 0
scalar OsgEarthNet.uav[81] simulationTime 259200
scalar OsgEarthNet.uav[82] utilizationSecMission 27875.998173203
scalar OsgEarthNet.uav[82] utilizationSecMaintenance 27678.119122091
scalar OsgEarthNet.uav[82] utilizationSecCharge 194773.88070471
scalar OsgEarthNet.uav[82] utilizationSecIdle 8872.001
scalar OsgEarthNet.uav[82] utilizationEnergyMission 135025.35061264
scalar OsgEarthNet.uav[82] utilizationEnergyMaintenance 128789.69648743
scalar OsgEarthNet.uav[82] utilizationEnergyCharge 262000.95581055
scalar OsgEarthNet.uav[82] utilizationEnergyOverdrawMission 0
scalar OsgEarthNet.uav[82] utilizationEnergyOverdrawMaintenance 0
scalar OsgEarthNet.uav[82] utilizationCountMissions 59
scalar OsgEarthNet.uav[82] utilizationCountManeuversMission 819
scalar OsgEarthNet.uav[82] utilizationCountManeuversMaintenance 118
scalar OsgEarthNet.uav[82] utilizationCountChargeState 59
scalar OsgEarthNet.uav[82] utilizationCountOverdrawnAfterMission 0
scalar OsgEarthNet.uav[82] utilizationCountIdleState 28
scalar OsgEarthNet.uav[82] utilizationFail 0
scalar OsgEarthNet.uav[82] simulationTime 259200
scalar OsgEarthNet.uav[83] utilizationSecMission 27287.266761712
scalar OsgEarthNet.uav[83] utilizationSecMaintenance 27858.435080337
scalar OsgEarthNet.uav[83] utilizationSecCharge 193724.05226695
scalar OsgEarthNet.uav[83] utilizationSecIdle 10330.244891
scalar OsgEarthNet.uav[83] utilizationEnergyMission 131219.11668777
scalar OsgEarthNet.uav[83] utilizationEnergyMaintenance 128828.6668663
scalar OsgEarthNet.uav[83] utilizationEnergyCharge 259942.80786133
scalar OsgEarthNet.uav[83] utilizationEnergyOverdrawMission 0
scalar OsgEarthNet.uav[83] utilizationEnergyOverdrawMaintenance 0
scalar OsgEarthNet.uav[83] utilizationCountMissions 59
scalar OsgEarthNet.uav[83] utilizationCountManeuversMission 808
scalar OsgEarthNet.uav[83] utilizationCountManeuversMaintenance 118
scalar OsgEarthNet.uav[83] utilizationCountChargeState 59
scalar OsgEarthNet.uav[83] utilizationCountOverdrawnAfterMission 0
scalar OsgEarthNet.uav[83] utilizationCountIdleState 30
scalar OsgEarthNet.uav[83] utilizationFail 0
scalar OsgEarthNet.uav[83] simulationTime 259200
scalar OsgEarthNet.uav[84] utilizationSecMission 27232.287797405
scalar OsgEarthNet.uav[84] utilizationSecMaintenance 27587.547283984
scalar OsgEarthNet.uav[84] utilizationSecCharge 193898.15491861
scalar OsgEarthNet.uav[84] utilizationSecIdle 10482.009
scalar OsgEarthNet.uav[84] utilizationEnergyMission 134580.72167969
scalar OsgEarthNet.uav[84] utilizationEnergyMaintenance 128922.46834183
scalar OsgEarthNet.uav[84] utilizationEnergyCharge 259641.29003906
scalar OsgEarthNet.uav[84] utilizationEnergyOverdrawMission 0
scalar OsgEarthNet.uav[84] utilizationEnergyOverdrawMaintenance 0
scalar OsgEarthNet.uav[84] utilizationCountMissions 59
scalar OsgEarthNet.uav[84] utilizationCountManeuversMission 956
scalar OsgEarthNet.uav[84] utilizationCountManeuversMaintenance 118
scalar OsgEarthNet.uav[84] utilizationCountChargeState 59
scalar OsgEarthNet.uav[84] utilizationCountOverdrawnAfterMission 0
scalar OsgEarthNet.uav[84] utilizationCountIdleState 29
scalar OsgEarthNet.uav[84] utilizationFail 0
scalar OsgEarthNet.uav[84] simulationTime 259200
scalar OsgEarthNet.uav[85] utilizationSecMission 29566.299539376
scalar OsgEarthNet.uav[85] utilizationSecMaintenance 26508.391710567
scalar OsgEarthNet.uav[85] utilizationSecCharge 194553.30175006
scalar OsgEarthNet.uav[85] utilizationSecIdle 8572.006
scalar OsgEarthNet.uav[85] utilizationEnergyMission 141454.69870758
scalar OsgEarthNet.uav[85] utilizationEnergyMaintenance 122464.36448669
scalar OsgEarthNet.uav[85] utilizationEnergyCharge 262757.46264648
scalar OsgEarthNet.uav[85] utilizationEnergyOverdrawMission 0
scalar OsgEarthNet.uav[85] utilizationEnergyOverdrawMaintenance 0
scalar OsgEarthNet.uav[85] utilizationCountMissions 60
scalar OsgEarthNet.uav[85] utilizationCountManeuversMission 887
scalar OsgEarthNet.uav[85] utilizationCountManeuversMaintenance 120
scalar OsgEarthNet.uav[85] utilizationCountChargeState 60
scalar OsgEarthNet.uav[85] utilizationCountOverdrawnAfterMission 0
scalar OsgEarthNet.uav[85] utilizationCountIdleState 26
scalar OsgEarthNet.uav[85] utilizationFail 0
scalar OsgEarthNet.uav[85] simulationTime 259200
scalar OsgEarthNet.uav[86] utilizationSecMission 28498.013253698
scalar OsgEarthNet.uav[86] utilizationSecMaintenance 27829.975746302
scalar OsgEarthNet.uav[86] utilizationSecCharge 193730
scalar OsgEarthNet.uav[86] utilizationSecIdle 9142.01
scalar OsgEarthNet.uav[86] utilizationEnergyMission 133120.23869705
scalar OsgEarthNet.uav[86] utilizationEnergyMaintenance 129859.85702136
scalar OsgEarthNet.uav[86] utilizationEnergyCharge 262587.30908203
scalar OsgEarthNet.uav[86] utilizationEnergyOverdrawMission 0
scalar OsgEarthNet.uav[86] utilizationEnergyOverdrawMaintenance 0
scalar OsgEarthNet.uav[86] utilizationCountMissions 59
scalar OsgEarthNet.uav[86] utilizationCountManeuversMission 800
scalar OsgEarthNet.uav[86] utilizationCountManeuversMaintenance 119
scalar OsgEarthNet.uav[86] utilizationCountChargeState 59
scalar OsgEarthNet.uav[86] utilizationCountOverdrawnAfterMission 0
scalar OsgEarthNet.uav[86] utilizationCountIdleState 21
scalar OsgEarthNet.uav[86] utilizationFail 0
scalar OsgEarthNet.uav[86] simulationTime 259200
scalar OsgEarthNet.uav[87] utilizationSecMission 27922.605438855
scalar OsgEarthNet.uav[87] utilizationSecMaintenance 27975.004499064
scalar OsgEarthNet.uav[87] utilizationSecCharge 195810.38506208
scalar OsgEarthNet.uav[87] utilizationSecIdle 7492.004
scalar OsgEarthNet.uav[87] utilizationEnergyMission 135004.07025528
scalar OsgEarthNet.uav[87] utilizationEnergyMaintenance 130347.88786316
scalar OsgEarthNet.uav[87] utilizationEnergyCharge 263523.05841064
scalar OsgEarthNet.uav[87] utilizationEnergyOverdrawMission 0
scalar OsgEarthNet.uav[87] utilizationEnergyOverdrawMaintenance 0
scalar OsgEarthNet.uav[87] utilizationCountMissions 60
scalar OsgEarthNet.uav[87] utilizationCountManeuversMission 869
scalar OsgEarthNet.uav[87] utilizationCountManeuversMaintenance 120
scalar OsgEarthNet.uav[87] utilizationCountChargeState 60
scalar OsgEarthNet.uav[87] utilizationCountOverdrawnAfterMission 0
scalar OsgEarthNet.uav[87] utilizationCountIdleState 24
scalar OsgEarthNet.uav[87] utilizationFail 0
scalar OsgEarthNet.uav[87] simulationTime 259200
scalar OsgEarthNet.uav[88] utilizationSecMission 29002.678744159
scalar OsgEarthNet.uav[88] utilizationSecMaintenance 27125.320255841
scalar OsgEarthNet.uav[88] utilizationSecCharge 194760
scalar OsgEarthNet.uav[88] utilizationSecIdle 8312
scalar OsgEarthNet.uav[88] utilizationEnergyMission 142712.31205337
scalar OsgEarthNet.uav[88] utilizationEnergyMaintenance 124940.49783707
scalar OsgEarthNet.uav[88] utilizationEnergyCharge 262428.42626953
scalar OsgEarthNet.uav[88] utilizationEnergyOverdrawMission 0
scalar OsgEarthNet.uav[88] utilizationEnergyOverdrawMaintenance 215.10446166992
scalar OsgEarthNet.uav[88] utilizationCountMissions 59
scalar OsgEarthNet.uav[88] utilizationCountManeuversMission 866
scalar OsgEarthNet.uav[88] utilizationCountManeuversMaintenance 118
scalar OsgEarthNet.uav[88] utilizationCountChargeState 59
scalar OsgEarthNet.uav[88] utilizationCountOverdrawnAfterMission 1
scalar OsgEarthNet.uav[88] utilizationCountIdleState 32
scalar OsgEarthNet.uav[88] utilizationFail 0
scalar OsgEarthNet.uav[88] simulationTime 259200
scalar OsgEarthNet.uav[89] utilizationSecMission 28586.392562771
scalar OsgEarthNet.uav[89] utilizationSecMaintenance 26792.79303163
scalar OsgEarthNet.uav[89] utilizationSecCharge 194548.8024056
scalar OsgEarthNet.uav[89] utilizationSecIdle 9272.011
scalar OsgEarthNet.uav[89] utilizationEnergyMission 139489.32969284
scalar OsgEarthNet.uav[89] utilizationEnergyMaintenance 123480.47424316
scalar OsgEarthNet.uav[89] utilizationEnergyCharge 262891.69677734
scalar OsgEarthNet.uav[89] utilizationEnergyOverdrawMission 0
scalar OsgEarthNet.uav[89] utilizationEnergyOverdrawMaintenance 0
scalar OsgEarthNet.uav[89] utilizationCountMissions 59
scalar OsgEarthNet.uav[89] utilizationCountManeuversMission 879
scalar OsgEarthNet.uav[89] utilizationCountManeuversMaintenance 118
scalar OsgEarthNet.uav[89] utilizationCountChargeState 59
scalar OsgEarthNet.uav[89] utilizationCountOverdrawnAfterMission 0
scalar OsgEarthNet.uav[89] utilizationCountIdleState 26
scalar OsgEarthNet.uav[89] utilizationFail 0
scalar OsgEarthNet.uav[89] simulationTime 259200
scalar OsgEarthNet.uav[90] utilizationSecMission 28396.685358432
scalar OsgEarthNet.uav[90] utilizationSecMaintenance 26449.563980757
scalar OsgEarthNet.uav[90] utilizationSecCharge 194392.79840515
scalar OsgEarthNet.uav[90] utilizationSecIdle 9960.9512556647
scalar OsgEarthNet.uav[90] utilizationEnergyMission 138075.54317474
scalar OsgEarthNet.uav[90] utilizationEnergyMaintenance 123746.68595886
scalar OsgEarthNet.uav[90] utilizationEnergyCharge 262248.91357422
scalar OsgEarthNet.uav[90] utilizationEnergyOverdrawMission 0
scalar OsgEarthNet.uav[90] utilizationEnergyOverdrawMaintenance 0
scalar OsgEarthNet.uav[90] utilizationCountMissions 59
scalar OsgEarthNet.uav[90] utilizationCountManeuversMission 973
scalar OsgEarthNet.uav[90] utilizationCountManeuversMaintenance 118
scalar OsgEarthNet.uav[90] utilizationCountChargeState 59
scalar OsgEarthNet.uav[90] utilizationCountOverdrawnAfterMission 0
scalar OsgEarthNet.uav[90] utilizationCountIdleState 28
scalar OsgEarthNet.uav[90] utilizationFail 0
scalar OsgEarthNet.uav[90] simulationTime 259200
scalar OsgEarthNet.uav[91] utilizationSecMission 31549.664704487
scalar OsgEarthNet.uav[91] utilizationSecMaintenance 22780.061250545
scalar OsgEarthNet.uav[91] utilizationSecCharge 192524.82395628
scalar OsgEarthNet.uav[91] utilizationSecIdle 12345.449088691
scalar OsgEarthNet.uav[91] utilizationEnergyMission 153850.48118591
scalar OsgEarthNet.uav[91] utilizationEnergyMaintenance 105958.61380005
scalar OsgEarthNet.uav[91] utilizationEnergyCharge 257447.78051758
scalar OsgEarthNet.uav[91] utilizationEnergyOverdrawMission 0
scalar OsgEarthNet.uav[91] utilizationEnergyOverdrawMaintenance 0
scalar OsgEarthNet.uav[91] utilizationCountMissions 58
scalar OsgEarthNet.uav[91] utilizationCountManeuversMission 984
scalar OsgEarthNet.uav[91] utilizationCountManeuversMaintenance 116
scalar OsgEarthNet.uav[91] utilizationCountChargeState 58
scalar OsgEarthNet.uav[91] utilizationCountOverdrawnAfterMission 0
scalar OsgEarthNet.uav[91] utilizationCountIdleState 30
scalar OsgEarthNet.uav[91] utilizationFail 0
scalar OsgEarthNet.uav[91] simulationTime 259200
scalar OsgEarthNet.uav[92] utilizationSecMission 29953.077034593
scalar OsgEarthNet.uav[92] utilizationSecMaintenance 26090.299775082
scalar OsgEarthNet.uav[92] utilizationSecCharge 196591.16653692
scalar OsgEarthNet.uav[92] utilizationSecIdle 6565.4556534032
scalar OsgEarthNet.uav[92] utilizationEnergyMission 145894.98710632
scalar OsgEarthNet.uav[92] utilizationEnergyMaintenance 120765.78629684
scalar OsgEarthNet.uav[92] utilizationEnergyCharge 263713.25427246
scalar OsgEarthNet.uav[92] utilizationEnergyOverdrawMission 0
scalar OsgEarthNet.uav[92] utilizationEnergyOverdrawMaintenance 0
scalar OsgEarthNet.uav[92] utilizationCountMissions 60
scalar OsgEarthNet.uav[92] utilizationCountManeuversMission 874
scalar OsgEarthNet.uav[92] utilizationCountManeuversMaintenance 120
scalar OsgEarthNet.uav[92] utilizationCountChargeState 60
scalar OsgEarthNet.uav[92] utilizationCountOverdrawnAfterMission 0
scalar OsgEarthNet.uav[92] utilizationCountIdleState 22
scalar OsgEarthNet.uav[92] utilizationFail 0
scalar OsgEarthNet.uav[92] simulationTime 259200
scalar OsgEarthNet.uav[93] utilizationSecMission 26510.919630268
scalar OsgEarthNet.uav[93] utilizationSecMaintenance 29878.993303668
scalar OsgEarthNet.uav[93] utilizationSecCharge 193914.81446817
scalar OsgEarthNet.uav[93] utilizationSecIdle 8895.2715978907
scalar OsgEarthNet.uav[93] utilizationEnergyMission 128558.2504921
scalar OsgEarthNet.uav[93] utilizationEnergyMaintenance 138702.9552536
scalar OsgEarthNet.uav[93] utilizationEnergyCharge 264628.17822266
scalar OsgEarthNet.uav[93] utilizationEnergyOverdrawMission 0
scalar OsgEarthNet.uav[93] utilizationEnergyOverdrawMaintenance 0
scalar OsgEarthNet.uav[93] utilizationCountMissions 60
scalar OsgEarthNet.uav[93] utilizationCountManeuversMission 796
scalar OsgEarthNet.uav[93] utilizationCountManeuversMaintenance 120
scalar OsgEarthNet.uav[93] utilizationCountChargeState 60
scalar OsgEarthNet.uav[93] utilizationCountOverdrawnAfterMission 0
scalar OsgEarthNet.uav[93] utilizationCountIdleState 20
scalar OsgEarthNet.uav[93] utilizationFail 0
scalar OsgEarthNet.uav[93] simulationTime 259200
scalar OsgEarthNet.uav[94] utilizationSecMission 28114.815116
scalar OsgEarthNet.uav[94] utilizationSecMaintenance 28395.770102928
scalar OsgEarthNet.uav[94] utilizationSecCharge 195757.40878107
scalar OsgEarthNet.uav[94] utilizationSecIdle 6932.005
scalar OsgEarthNet.uav[94] utilizationEnergyMission 133410.29836655
scalar OsgEarthNet.uav[94] utilizationEnergyMaintenance 133658.30851364
scalar OsgEarthNet.uav[94] utilizationEnergyCharge 265184.07067871
scalar OsgEarthNet.uav[94] utilizationEnergyOverdrawMission 0
scalar OsgEarthNet.uav[94] utilizationEnergyOverdrawMaintenance 0
scalar OsgEarthNet.uav[94] utilizationCountMissions 60
scalar OsgEarthNet.uav[94] utilizationCountManeuversMission 834
scalar OsgEarthNet.uav[94] utilizationCountManeuversMaintenance 120
scalar OsgEarthNet.uav[94] utilizationCountChargeState 60
scalar OsgEarthNet.uav[94] utilizationCountOverdrawnAfterMission 0
scalar OsgEarthNet.uav[94] utilizationCountIdleState 23
scalar OsgEarthNet.uav[94] utilizationFail 0
scalar OsgEarthNet.uav[94] simulationTime 259200
scalar OsgEarthNet.uav[95] utilizationSecMission 30272.620775181
scalar OsgEarthNet.uav[95] utilizationSecMaintenance 25596.546671863
scalar OsgEarthNet.uav[95] utilizationSecCharge 197528.83155296
scalar OsgEarthNet.uav[95] utilizationSecIdle 5802
scalar OsgEarthNet.uav[95] utilizationEnergyMission 146249.9094429
scalar OsgEarthNet.uav[95] utilizationEnergyMaintenance 117260.34428024
scalar OsgEarthNet.uav[95] utilizationEnergyCharge 263315.94799805
scalar OsgEarthNet.uav[95] utilizationEnergyOverdrawMission 0
scalar OsgEarthNet.uav[95] utilizationEnergyOverdrawMaintenance 0
scalar OsgEarthNet.uav[95] utilizationCountMissions 60
scalar OsgEarthNet.uav[95] utilizationCountManeuversMission 943
scalar OsgEarthNet.uav[95] utilizationCountManeuversMaintenance 120
scalar OsgEarthNet.uav[95] utilizationCountChargeState 60
scalar OsgEarthNet.uav[95] utilizationCountOverdrawnAfterMission 0
scalar OsgEarthNet.uav[95] utilizationCountIdleState 27
scalar OsgEarthNet.uav[95] utilizationFail 0
scalar OsgEarthNet.uav[95] simulationTime 259200
scalar OsgEarthNet.uav[96] utilizationSecMission 27910.855205685
scalar OsgEarthNet.uav[96] utilizationSecMaintenance 28107.239731208
scalar OsgEarthNet.uav[96] utilizationSecCharge 193680.95180744
scalar OsgEarthNet.uav[96] utilizationSecIdle 9500.9522556647
scalar OsgEarthNet.uav[96] utilizationEnergyMission 134557.43897247
scalar OsgEarthNet.uav[96] utilizationEnergyMaintenance 128908.42737198
scalar OsgEarthNet.uav[96] utilizationEnergyCharge 263188.62792969
scalar OsgEarthNet.uav[96] utilizationEnergyOverdrawMission 0
scalar OsgEarthNet.uav[96] utilizationEnergyOverdrawMaintenance 0
scalar OsgEarthNet.uav[96] utilizationCountMissions 59
scalar OsgEarthNet.uav[96] utilizationCountManeuversMission 798
scalar OsgEarthNet.uav[96] utilizationCountManeuversMaintenance 118
scalar OsgEarthNet.uav[96] utilizationCountChargeState 59
scalar OsgEarthNet.uav[96] utilizationCountOverdrawnAfterMission 0
scalar OsgEarthNet.uav[96] utilizationCountIdleState 20
scalar OsgEarthNet.uav[96] utilizationFail 0
scalar OsgEarthNet.uav[96] simulationTime 259200
scalar OsgEarthNet.uav[97] utilizationSecMission 26210.534645685
scalar OsgEarthNet.uav[97] utilizationSecMaintenance 29878.986848712
scalar OsgEarthNet.uav[97] utilizationSecCharge 195760
scalar OsgEarthNet.uav[97] utilizationSecIdle 7350.477505603
scalar OsgEarthNet.uav[97] utilizationEnergyMission 128735.72919469
scalar OsgEarthNet.uav[97] utilizationEnergyMaintenance 138864.72106552
scalar OsgEarthNet.uav[97] utilizationEnergyCharge 266250.68920898
scalar OsgEarthNet.uav[97] utilizationEnergyOverdrawMission 0
scalar OsgEarthNet.uav[97] utilizationEnergyOverdrawMaintenance 0
scalar OsgEarthNet.uav[97] utilizationCountMissions 60
scalar OsgEarthNet.uav[97] utilizationCountManeuversMission 857
scalar OsgEarthNet.uav[97] utilizationCountManeuversMaintenance 121
scalar OsgEarthNet.uav[97] utilizationCountChargeState 60
scalar OsgEarthNet.uav[97] utilizationCountOverdrawnAfterMission 0
scalar OsgEarthNet.uav[97] utilizationCountIdleState 15
scalar OsgEarthNet.uav[97] utilizationFail 0
scalar OsgEarthNet.uav[97] simulationTime 259200
scalar OsgEarthNet.uav[98] utilizationSecMission 28554.306880895
scalar OsgEarthNet.uav[98] utilizationSecMaintenance 27771.727214484
scalar OsgEarthNet.uav[98] utilizationSecCharge 197511.96490462
scalar OsgEarthNet.uav[98] utilizationSecIdle 5362
scalar OsgEarthNet.uav[98] utilizationEnergyMission 137348.91893993
scalar OsgEarthNet.uav[98] utilizationEnergyMaintenance 129913.09644699
scalar OsgEarthNet.uav[98] utilizationEnergyCharge 266711.28051758
scalar OsgEarthNet.uav[98] utilizationEnergyOverdrawMission 0
scalar OsgEarthNet.uav[98] utilizationEnergyOverdrawMaintenance 0
scalar OsgEarthNet.uav[98] utilizationCountMissions 61
scalar OsgEarthNet.uav[98] utilizationCountManeuversMission 948
scalar OsgEarthNet.uav[98] utilizationCountManeuversMaintenance 121
scalar OsgEarthNet.uav[98] utilizationCountChargeState 61
scalar OsgEarthNet.uav[98] utilizationCountOverdrawnAfterMission 0
scalar OsgEarthNet.uav[98] utilizationCountIdleState 22
scalar OsgEarthNet.uav[98] utilizationFail 0
scalar OsgEarthNet.uav[98] simulationTime 259200
scalar OsgEarthNet.uav[99] utilizationSecMission 29828.55092804
scalar OsgEarthNet.uav[99] utilizationSecMaintenance 25639.44007196
scalar OsgEarthNet.uav[99] utilizationSecCharge 195550
scalar OsgEarthNet.uav[99] utilizationSecIdle 8182.008
scalar OsgEarthNet.uav[99] utilizationEnergyMission 143209.47803427
scalar OsgEarthNet.uav[99] utilizationEnergyMaintenance 119414.39228058
scalar OsgEarthNet.uav[99] utilizationEnergyCharge 263006.65087891
scalar OsgEarthNet.uav[99] utilizationEnergyOverdrawMission 0
scalar OsgEarthNet.uav[99] utilizationEnergyOverdrawMaintenance 0
scalar OsgEarthNet.uav[99] utilizationCountMissions 59
scalar OsgEarthNet.uav[99] utilizationCountManeuversMission 838
scalar OsgEarthNet.uav[99] utilizationCountManeuversMaintenance 119
scalar OsgEarthNet.uav[99] utilizationCountChargeState 59
scalar OsgEarthNet.uav[99] utilizationCountOverdrawnAfterMission 0
scalar OsgEarthNet.uav[99] utilizationCountIdleState 26
scalar OsgEarthNet.uav[99] utilizationFail 0
scalar OsgEarthNet.uav[99] simulationTime 259200
scalar OsgEarthNet.cs[0] usedPower 5245612.6855375
scalar OsgEarthNet.cs[0] chargedPower 5245612.6855375
scalar OsgEarthNet.cs[0] chargedMobileNodes 914
scalar OsgEarthNet.cs[0] reservations 1199
scalar OsgEarthNet.cs[1] usedPower 5665105.5310867
scalar OsgEarthNet.cs[1] chargedPower 5665105.5310867
scalar OsgEarthNet.cs[1] chargedMobileNodes 922
scalar OsgEarthNet.cs[1] reservations 1258
scalar OsgEarthNet.cs[2] usedPower 9719116.3522511
scalar OsgEarthNet.cs[2] chargedPower 9719116.3522511
scalar OsgEarthNet.cs[2] chargedMobileNodes 1775
scalar OsgEarthNet.cs[2] reservations 2204

