version 2
run Szenario_Hotel_Gabelbach-49-20180707-22:47:30-26120
attr configname Szenario_Hotel_Gabelbach
attr datetime 20180707-22:47:30
attr experiment Szenario_Hotel_Gabelbach
attr inifile omnetpp.ini
attr iterationvars "$quant=0.95, $replM=0"
attr iterationvarsf quant=0.95,replM=0-
attr measurement "$quant=0.95, $replM=0"
attr network OsgEarthNet
attr processid 26120
attr repetition 1
attr replication #1
attr resultdir results
attr runnumber 49
attr seedset 49
itervar quant 0.95
itervar replM 0
param *.osgEarthScene.scene "\"Szenario_Hotel_Gabelbach.earth\""
param *.playgroundLatitude 50.6830269
param *.playgroundLongitude 10.8538055
param *.playgroundWidth 3500m
param *.playgroundHeight 3500m
param *.numCSs 3
param *.numUAVs 100
param *.cs[0].posX 3537m
param *.cs[0].posY 965m
param *.cs[0].posZ 538m
param *.cs[1].posX 312m
param *.cs[1].posY 1262m
param *.cs[1].posZ 539m
param *.cs[2].posX 2185m
param *.cs[2].posY 3026m
param *.cs[2].posZ 777m
param *.uav[*].predictionQuantile 0.95
param *.uav[*].replacementMethod 0
param *.*.timeStep 10s
param *.uav[*].commandPreviewCommandCount 20
param *.missionControl.missionFiles "\"missions\\\\Szenario_WB_Hotel_Gabelbach_Mission_Hotel.waypoints,missions\\\\Szenario_WB_Hotel_Gabelbach_Mission_Kickelhahn.waypoints,missions\\\\Szenario_WB_Hotel_Gabelbach_Mission_Ilmenau_Sportplatz.waypoints,missions\\\\Szenario_WB_Hotel_Gabelbach_Mission_Manebach_Mitte.waypoints,missions\\\\Szenario_WB_Hotel_Gabelbach_Mission_Manebach_Sued.waypoints,missions\\\\Szenario_WB_Hotel_Gabelbach_Hover_HoheSchlaufe.waypoints,missions\\\\Szenario_WB_Hotel_Gabelbach_Hover_Kickelhahn.waypoints,missions\\\\Szenario_WB_Hotel_Gabelbach_Hover_Gabelbachskopf.waypoints,missions\\\\Szenario_WB_Hotel_Gabelbach_Hover_Dachskopf.waypoints\""
param *.uav[0].startX 3537m
param *.uav[0].startY 965m
param *.uav[0].startZ 539m
param *.uav[1].startX 312m
param *.uav[1].startY 1262m
param *.uav[1].startZ 540m
param *.uav[2].startX 2185m
param *.uav[2].startY 3026m
param *.uav[2].startZ 778m
param *.uav[3].startX 3537m
param *.uav[3].startY 965m
param *.uav[3].startZ 539m
param *.uav[4].startX 312m
param *.uav[4].startY 1262m
param *.uav[4].startZ 540m
param *.uav[5].startX 2185m
param *.uav[5].startY 3026m
param *.uav[5].startZ 778m
param *.uav[6].startX 3537m
param *.uav[6].startY 965m
param *.uav[6].startZ 539m
param *.uav[7].startX 312m
param *.uav[7].startY 1262m
param *.uav[7].startZ 540m
param *.uav[8].startX 2185m
param *.uav[8].startY 3026m
param *.uav[8].startZ 778m
param *.uav[9].startX 3537m
param *.uav[9].startY 965m
param *.uav[9].startZ 539m
param *.uav[10].startX 3537m
param *.uav[10].startY 965m
param *.uav[10].startZ 539m
param *.uav[11].startX 312m
param *.uav[11].startY 1262m
param *.uav[11].startZ 540m
param *.uav[12].startX 2185m
param *.uav[12].startY 3026m
param *.uav[12].startZ 778m
param *.uav[13].startX 3537m
param *.uav[13].startY 965m
param *.uav[13].startZ 539m
param *.uav[14].startX 312m
param *.uav[14].startY 1262m
param *.uav[14].startZ 540m
param *.uav[15].startX 2185m
param *.uav[15].startY 3026m
param *.uav[15].startZ 778m
param *.uav[16].startX 3537m
param *.uav[16].startY 965m
param *.uav[16].startZ 539m
param *.uav[17].startX 312m
param *.uav[17].startY 1262m
param *.uav[17].startZ 540m
param *.uav[18].startX 2185m
param *.uav[18].startY 3026m
param *.uav[18].startZ 778m
param *.uav[19].startX 3537m
param *.uav[19].startY 965m
param *.uav[19].startZ 539m
param *.uav[20].startX 3537m
param *.uav[20].startY 965m
param *.uav[20].startZ 539m
param *.uav[21].startX 312m
param *.uav[21].startY 1262m
param *.uav[21].startZ 540m
param *.uav[22].startX 2185m
param *.uav[22].startY 3026m
param *.uav[22].startZ 778m
param *.uav[23].startX 3537m
param *.uav[23].startY 965m
param *.uav[23].startZ 539m
param *.uav[24].startX 312m
param *.uav[24].startY 1262m
param *.uav[24].startZ 540m
param *.uav[25].startX 2185m
param *.uav[25].startY 3026m
param *.uav[25].startZ 778m
param *.uav[26].startX 3537m
param *.uav[26].startY 965m
param *.uav[26].startZ 539m
param *.uav[27].startX 312m
param *.uav[27].startY 1262m
param *.uav[27].startZ 540m
param *.uav[28].startX 2185m
param *.uav[28].startY 3026m
param *.uav[28].startZ 778m
param *.uav[29].startX 3537m
param *.uav[29].startY 965m
param *.uav[29].startZ 539m
param *.uav[30].startX 3537m
param *.uav[30].startY 965m
param *.uav[30].startZ 539m
param *.uav[31].startX 312m
param *.uav[31].startY 1262m
param *.uav[31].startZ 540m
param *.uav[32].startX 2185m
param *.uav[32].startY 3026m
param *.uav[32].startZ 778m
param *.uav[33].startX 3537m
param *.uav[33].startY 965m
param *.uav[33].startZ 539m
param *.uav[34].startX 312m
param *.uav[34].startY 1262m
param *.uav[34].startZ 540m
param *.uav[35].startX 2185m
param *.uav[35].startY 3026m
param *.uav[35].startZ 778m
param *.uav[36].startX 3537m
param *.uav[36].startY 965m
param *.uav[36].startZ 539m
param *.uav[37].startX 312m
param *.uav[37].startY 1262m
param *.uav[37].startZ 540m
param *.uav[38].startX 2185m
param *.uav[38].startY 3026m
param *.uav[38].startZ 778m
param *.uav[39].startX 3537m
param *.uav[39].startY 965m
param *.uav[39].startZ 539m
param *.uav[40].startX 3537m
param *.uav[40].startY 965m
param *.uav[40].startZ 539m
param *.uav[41].startX 312m
param *.uav[41].startY 1262m
param *.uav[41].startZ 540m
param *.uav[42].startX 2185m
param *.uav[42].startY 3026m
param *.uav[42].startZ 778m
param *.uav[43].startX 3537m
param *.uav[43].startY 965m
param *.uav[43].startZ 539m
param *.uav[44].startX 312m
param *.uav[44].startY 1262m
param *.uav[44].startZ 540m
param *.uav[45].startX 2185m
param *.uav[45].startY 3026m
param *.uav[45].startZ 778m
param *.uav[46].startX 3537m
param *.uav[46].startY 965m
param *.uav[46].startZ 539m
param *.uav[47].startX 312m
param *.uav[47].startY 1262m
param *.uav[47].startZ 540m
param *.uav[48].startX 2185m
param *.uav[48].startY 3026m
param *.uav[48].startZ 778m
param *.uav[49].startX 3537m
param *.uav[49].startY 965m
param *.uav[49].startZ 539m
param *.uav[50].startX 3537m
param *.uav[50].startY 965m
param *.uav[50].startZ 539m
param *.uav[51].startX 312m
param *.uav[51].startY 1262m
param *.uav[51].startZ 540m
param *.uav[52].startX 2185m
param *.uav[52].startY 3026m
param *.uav[52].startZ 778m
param *.uav[53].startX 3537m
param *.uav[53].startY 965m
param *.uav[53].startZ 539m
param *.uav[54].startX 312m
param *.uav[54].startY 1262m
param *.uav[54].startZ 540m
param *.uav[55].startX 2185m
param *.uav[55].startY 3026m
param *.uav[55].startZ 778m
param *.uav[56].startX 3537m
param *.uav[56].startY 965m
param *.uav[56].startZ 539m
param *.uav[57].startX 312m
param *.uav[57].startY 1262m
param *.uav[57].startZ 540m
param *.uav[58].startX 2185m
param *.uav[58].startY 3026m
param *.uav[58].startZ 778m
param *.uav[59].startX 3537m
param *.uav[59].startY 965m
param *.uav[59].startZ 539m
param *.uav[60].startX 3537m
param *.uav[60].startY 965m
param *.uav[60].startZ 539m
param *.uav[61].startX 312m
param *.uav[61].startY 1262m
param *.uav[61].startZ 540m
param *.uav[62].startX 2185m
param *.uav[62].startY 3026m
param *.uav[62].startZ 778m
param *.uav[63].startX 3537m
param *.uav[63].startY 965m
param *.uav[63].startZ 539m
param *.uav[64].startX 312m
param *.uav[64].startY 1262m
param *.uav[64].startZ 540m
param *.uav[65].startX 2185m
param *.uav[65].startY 3026m
param *.uav[65].startZ 778m
param *.uav[66].startX 3537m
param *.uav[66].startY 965m
param *.uav[66].startZ 539m
param *.uav[67].startX 312m
param *.uav[67].startY 1262m
param *.uav[67].startZ 540m
param *.uav[68].startX 2185m
param *.uav[68].startY 3026m
param *.uav[68].startZ 778m
param *.uav[69].startX 3537m
param *.uav[69].startY 965m
param *.uav[69].startZ 539m
param *.uav[70].startX 3537m
param *.uav[70].startY 965m
param *.uav[70].startZ 539m
param *.uav[71].startX 312m
param *.uav[71].startY 1262m
param *.uav[71].startZ 540m
param *.uav[72].startX 2185m
param *.uav[72].startY 3026m
param *.uav[72].startZ 778m
param *.uav[73].startX 3537m
param *.uav[73].startY 965m
param *.uav[73].startZ 539m
param *.uav[74].startX 312m
param *.uav[74].startY 1262m
param *.uav[74].startZ 540m
param *.uav[75].startX 2185m
param *.uav[75].startY 3026m
param *.uav[75].startZ 778m
param *.uav[76].startX 3537m
param *.uav[76].startY 965m
param *.uav[76].startZ 539m
param *.uav[77].startX 312m
param *.uav[77].startY 1262m
param *.uav[77].startZ 540m
param *.uav[78].startX 2185m
param *.uav[78].startY 3026m
param *.uav[78].startZ 778m
param *.uav[79].startX 3537m
param *.uav[79].startY 965m
param *.uav[79].startZ 539m
param *.uav[80].startX 3537m
param *.uav[80].startY 965m
param *.uav[80].startZ 539m
param *.uav[81].startX 312m
param *.uav[81].startY 1262m
param *.uav[81].startZ 540m
param *.uav[82].startX 2185m
param *.uav[82].startY 3026m
param *.uav[82].startZ 778m
param *.uav[83].startX 3537m
param *.uav[83].startY 965m
param *.uav[83].startZ 539m
param *.uav[84].startX 312m
param *.uav[84].startY 1262m
param *.uav[84].startZ 540m
param *.uav[85].startX 2185m
param *.uav[85].startY 3026m
param *.uav[85].startZ 778m
param *.uav[86].startX 3537m
param *.uav[86].startY 965m
param *.uav[86].startZ 539m
param *.uav[87].startX 312m
param *.uav[87].startY 1262m
param *.uav[87].startZ 540m
param *.uav[88].startX 2185m
param *.uav[88].startY 3026m
param *.uav[88].startZ 778m
param *.uav[89].startX 3537m
param *.uav[89].startY 965m
param *.uav[89].startZ 539m
param *.uav[90].startX 3537m
param *.uav[90].startY 965m
param *.uav[90].startZ 539m
param *.uav[91].startX 312m
param *.uav[91].startY 1262m
param *.uav[91].startZ 540m
param *.uav[92].startX 2185m
param *.uav[92].startY 3026m
param *.uav[92].startZ 778m
param *.uav[93].startX 3537m
param *.uav[93].startY 965m
param *.uav[93].startZ 539m
param *.uav[94].startX 312m
param *.uav[94].startY 1262m
param *.uav[94].startZ 540m
param *.uav[95].startX 2185m
param *.uav[95].startY 3026m
param *.uav[95].startZ 778m
param *.uav[96].startX 3537m
param *.uav[96].startY 965m
param *.uav[96].startZ 539m
param *.uav[97].startX 312m
param *.uav[97].startY 1262m
param *.uav[97].startZ 540m
param *.uav[98].startX 2185m
param *.uav[98].startY 3026m
param *.uav[98].startZ 778m
param *.uav[99].startX 3537m
param *.uav[99].startY 965m
param *.uav[99].startZ 539m
param *.osgEarthScene.scene "\"boston.earth\""
param *.playgroundLatitude 42.3558
param *.playgroundLongitude -71.0677
param *.playgroundWidth 400m
param *.playgroundHeight 200m
param *.channelController.connectionColor "\"#0000FF40\""
param *.channelController.showConnections false
param *.uav[*].modelURL "\"quadrocopter.small.obj.15.scale.0,0,90.rot\""
param *.uav[*].labelColor "\"#FF7C00CC\""
param *.uav[*].label2Color "\"#FF7C00EE\""
param *.uav[*].batteryCapacity 5200mAh
param *.uav[*].batteryRemaining uav[index].batteryCapacity
param *.uav[*].predictionQuantile 0.95
param *.uav[*].replacementMethod 2
param *.uav[*].weightedSumWeight 0.5
param *.cs[*].modelURL "\"chargingstation_v1.osgt.1.scale.0,0,0.rot.0,0,-15e-1.trans\""
param *.cs[*].spotsWaiting 999
param *.cs[*].spotsCharging 999
param *.cs[*].chargeEffectivenessPercentage 100
param *.cs[*].nonLinearPhaseStartPercentage 85
param *.cs[*].chargeCurrent 6.0A
param *.cs[*].prioritizeFastCharge true
param *.missionControl.replacementSearchMethod 0
param *.*.timeStep 9s

scalar OsgEarthNet.uav[0] utilizationSecMission 29451.911848972
scalar OsgEarthNet.uav[0] utilizationSecMaintenance 22709.0062633
scalar OsgEarthNet.uav[0] utilizationSecCharge 186727.08088773
scalar OsgEarthNet.uav[0] utilizationSecIdle 20312
scalar OsgEarthNet.uav[0] utilizationEnergyMission 143253.78084946
scalar OsgEarthNet.uav[0] utilizationEnergyMaintenance 105056.47966003
scalar OsgEarthNet.uav[0] utilizationEnergyCharge 244044.78881836
scalar OsgEarthNet.uav[0] utilizationEnergyOverdrawMission 0
scalar OsgEarthNet.uav[0] utilizationEnergyOverdrawMaintenance 0
scalar OsgEarthNet.uav[0] utilizationCountMissions 56
scalar OsgEarthNet.uav[0] utilizationCountManeuversMission 912
scalar OsgEarthNet.uav[0] utilizationCountManeuversMaintenance 111
scalar OsgEarthNet.uav[0] utilizationCountChargeState 56
scalar OsgEarthNet.uav[0] utilizationCountOverdrawnAfterMission 0
scalar OsgEarthNet.uav[0] utilizationCountIdleState 56
scalar OsgEarthNet.uav[0] utilizationFail 0
scalar OsgEarthNet.uav[0] simulationTime 259200
scalar OsgEarthNet.uav[1] utilizationSecMission 494.14522745751
scalar OsgEarthNet.uav[1] utilizationSecMaintenance 475.67121193677
scalar OsgEarthNet.uav[1] utilizationSecCharge 3410
scalar OsgEarthNet.uav[1] utilizationSecIdle 254820.18256061
scalar OsgEarthNet.uav[1] utilizationEnergyMission 2113.6360931396
scalar OsgEarthNet.uav[1] utilizationEnergyMaintenance 2345.4173393249
scalar OsgEarthNet.uav[1] utilizationEnergyCharge 4502.3432617188
scalar OsgEarthNet.uav[1] utilizationEnergyOverdrawMission 0
scalar OsgEarthNet.uav[1] utilizationEnergyOverdrawMaintenance 0
scalar OsgEarthNet.uav[1] utilizationCountMissions 1
scalar OsgEarthNet.uav[1] utilizationCountManeuversMission 8
scalar OsgEarthNet.uav[1] utilizationCountManeuversMaintenance 2
scalar OsgEarthNet.uav[1] utilizationCountChargeState 1
scalar OsgEarthNet.uav[1] utilizationCountOverdrawnAfterMission 0
scalar OsgEarthNet.uav[1] utilizationCountIdleState 2
scalar OsgEarthNet.uav[1] utilizationFail 0
scalar OsgEarthNet.uav[1] simulationTime 259200
scalar OsgEarthNet.uav[2] utilizationSecMission 26993.875705505
scalar OsgEarthNet.uav[2] utilizationSecMaintenance 20130.13347459
scalar OsgEarthNet.uav[2] utilizationSecCharge 168763.98581991
scalar OsgEarthNet.uav[2] utilizationSecIdle 43312.004
scalar OsgEarthNet.uav[2] utilizationEnergyMission 130654.22849274
scalar OsgEarthNet.uav[2] utilizationEnergyMaintenance 93713.461406708
scalar OsgEarthNet.uav[2] utilizationEnergyCharge 221427.17297363
scalar OsgEarthNet.uav[2] utilizationEnergyOverdrawMission 0
scalar OsgEarthNet.uav[2] utilizationEnergyOverdrawMaintenance 0
scalar OsgEarthNet.uav[2] utilizationCountMissions 50
scalar OsgEarthNet.uav[2] utilizationCountManeuversMission 885
scalar OsgEarthNet.uav[2] utilizationCountManeuversMaintenance 100
scalar OsgEarthNet.uav[2] utilizationCountChargeState 50
scalar OsgEarthNet.uav[2] utilizationCountOverdrawnAfterMission 0
scalar OsgEarthNet.uav[2] utilizationCountIdleState 50
scalar OsgEarthNet.uav[2] utilizationFail 0
scalar OsgEarthNet.uav[2] simulationTime 259200
scalar OsgEarthNet.uav[3] utilizationSecMission 22464.749471792
scalar OsgEarthNet.uav[3] utilizationSecMaintenance 19652.801647712
scalar OsgEarthNet.uav[3] utilizationSecCharge 151710
scalar OsgEarthNet.uav[3] utilizationSecIdle 65372.447880496
scalar OsgEarthNet.uav[3] utilizationEnergyMission 106891.85778459
scalar OsgEarthNet.uav[3] utilizationEnergyMaintenance 92022.631542206
scalar OsgEarthNet.uav[3] utilizationEnergyCharge 197592.89819336
scalar OsgEarthNet.uav[3] utilizationEnergyOverdrawMission 0
scalar OsgEarthNet.uav[3] utilizationEnergyOverdrawMaintenance 0
scalar OsgEarthNet.uav[3] utilizationCountMissions 45
scalar OsgEarthNet.uav[3] utilizationCountManeuversMission 688
scalar OsgEarthNet.uav[3] utilizationCountManeuversMaintenance 91
scalar OsgEarthNet.uav[3] utilizationCountChargeState 45
scalar OsgEarthNet.uav[3] utilizationCountOverdrawnAfterMission 0
scalar OsgEarthNet.uav[3] utilizationCountIdleState 46
scalar OsgEarthNet.uav[3] utilizationFail 0
scalar OsgEarthNet.uav[3] simulationTime 259200
scalar OsgEarthNet.uav[4] utilizationSecMission 26360.88521299
scalar OsgEarthNet.uav[4] utilizationSecMaintenance 22925.925647137
scalar OsgEarthNet.uav[4] utilizationSecCharge 179429.52193531
scalar OsgEarthNet.uav[4] utilizationSecIdle 30483.666204563
scalar OsgEarthNet.uav[4] utilizationEnergyMission 130008.18296814
scalar OsgEarthNet.uav[4] utilizationEnergyMaintenance 106490.59841919
scalar OsgEarthNet.uav[4] utilizationEnergyCharge 234923.38500977
scalar OsgEarthNet.uav[4] utilizationEnergyOverdrawMission 0
scalar OsgEarthNet.uav[4] utilizationEnergyOverdrawMaintenance 0
scalar OsgEarthNet.uav[4] utilizationCountMissions 53
scalar OsgEarthNet.uav[4] utilizationCountManeuversMission 855
scalar OsgEarthNet.uav[4] utilizationCountManeuversMaintenance 106
scalar OsgEarthNet.uav[4] utilizationCountChargeState 53
scalar OsgEarthNet.uav[4] utilizationCountOverdrawnAfterMission 0
scalar OsgEarthNet.uav[4] utilizationCountIdleState 53
scalar OsgEarthNet.uav[4] utilizationFail 0
scalar OsgEarthNet.uav[4] simulationTime 259200
scalar OsgEarthNet.uav[5] utilizationSecMission 12918.806805461
scalar OsgEarthNet.uav[5] utilizationSecMaintenance 12928.64952699
scalar OsgEarthNet.uav[5] utilizationSecCharge 94780
scalar OsgEarthNet.uav[5] utilizationSecIdle 138572.54266755
scalar OsgEarthNet.uav[5] utilizationEnergyMission 62646.851688385
scalar OsgEarthNet.uav[5] utilizationEnergyMaintenance 59886.789230347
scalar OsgEarthNet.uav[5] utilizationEnergyCharge 123593.31982422
scalar OsgEarthNet.uav[5] utilizationEnergyOverdrawMission 0
scalar OsgEarthNet.uav[5] utilizationEnergyOverdrawMaintenance 0
scalar OsgEarthNet.uav[5] utilizationCountMissions 28
scalar OsgEarthNet.uav[5] utilizationCountManeuversMission 475
scalar OsgEarthNet.uav[5] utilizationCountManeuversMaintenance 56
scalar OsgEarthNet.uav[5] utilizationCountChargeState 28
scalar OsgEarthNet.uav[5] utilizationCountOverdrawnAfterMission 0
scalar OsgEarthNet.uav[5] utilizationCountIdleState 29
scalar OsgEarthNet.uav[5] utilizationFail 0
scalar OsgEarthNet.uav[5] simulationTime 259200
scalar OsgEarthNet.uav[6] utilizationSecMission 25165.581586752
scalar OsgEarthNet.uav[6] utilizationSecMaintenance 19872.405413248
scalar OsgEarthNet.uav[6] utilizationSecCharge 157480
scalar OsgEarthNet.uav[6] utilizationSecIdle 56682.012
scalar OsgEarthNet.uav[6] utilizationEnergyMission 120673.88145447
scalar OsgEarthNet.uav[6] utilizationEnergyMaintenance 91508.803470102
scalar OsgEarthNet.uav[6] utilizationEnergyCharge 207161.05419922
scalar OsgEarthNet.uav[6] utilizationEnergyOverdrawMission 0
scalar OsgEarthNet.uav[6] utilizationEnergyOverdrawMaintenance 0
scalar OsgEarthNet.uav[6] utilizationCountMissions 47
scalar OsgEarthNet.uav[6] utilizationCountManeuversMission 770
scalar OsgEarthNet.uav[6] utilizationCountManeuversMaintenance 94
scalar OsgEarthNet.uav[6] utilizationCountChargeState 46
scalar OsgEarthNet.uav[6] utilizationCountOverdrawnAfterMission 0
scalar OsgEarthNet.uav[6] utilizationCountIdleState 47
scalar OsgEarthNet.uav[6] utilizationFail 0
scalar OsgEarthNet.uav[6] simulationTime 259200
scalar OsgEarthNet.uav[7] utilizationSecMission 5991.8917059061
scalar OsgEarthNet.uav[7] utilizationSecMaintenance 4053.8854036567
scalar OsgEarthNet.uav[7] utilizationSecCharge 37120
scalar OsgEarthNet.uav[7] utilizationSecIdle 212034.22189044
scalar OsgEarthNet.uav[7] utilizationEnergyMission 28704.841899872
scalar OsgEarthNet.uav[7] utilizationEnergyMaintenance 18643.002231598
scalar OsgEarthNet.uav[7] utilizationEnergyCharge 48308.700195312
scalar OsgEarthNet.uav[7] utilizationEnergyOverdrawMission 0
scalar OsgEarthNet.uav[7] utilizationEnergyOverdrawMaintenance 0
scalar OsgEarthNet.uav[7] utilizationCountMissions 11
scalar OsgEarthNet.uav[7] utilizationCountManeuversMission 210
scalar OsgEarthNet.uav[7] utilizationCountManeuversMaintenance 22
scalar OsgEarthNet.uav[7] utilizationCountChargeState 11
scalar OsgEarthNet.uav[7] utilizationCountOverdrawnAfterMission 0
scalar OsgEarthNet.uav[7] utilizationCountIdleState 12
scalar OsgEarthNet.uav[7] utilizationFail 0
scalar OsgEarthNet.uav[7] simulationTime 259200
scalar OsgEarthNet.uav[8] utilizationSecMission 25332.960677488
scalar OsgEarthNet.uav[8] utilizationSecMaintenance 21405.585360578
scalar OsgEarthNet.uav[8] utilizationSecCharge 171250
scalar OsgEarthNet.uav[8] utilizationSecIdle 41211.452961934
scalar OsgEarthNet.uav[8] utilizationEnergyMission 124260.77936554
scalar OsgEarthNet.uav[8] utilizationEnergyMaintenance 99487.854464009
scalar OsgEarthNet.uav[8] utilizationEnergyCharge 223244.90405273
scalar OsgEarthNet.uav[8] utilizationEnergyOverdrawMission 0
scalar OsgEarthNet.uav[8] utilizationEnergyOverdrawMaintenance 0
scalar OsgEarthNet.uav[8] utilizationCountMissions 51
scalar OsgEarthNet.uav[8] utilizationCountManeuversMission 855
scalar OsgEarthNet.uav[8] utilizationCountManeuversMaintenance 103
scalar OsgEarthNet.uav[8] utilizationCountChargeState 51
scalar OsgEarthNet.uav[8] utilizationCountOverdrawnAfterMission 0
scalar OsgEarthNet.uav[8] utilizationCountIdleState 52
scalar OsgEarthNet.uav[8] utilizationFail 0
scalar OsgEarthNet.uav[8] simulationTime 259200
scalar OsgEarthNet.uav[9] utilizationSecMission 3412.2510689231
scalar OsgEarthNet.uav[9] utilizationSecMaintenance 2966.621871179
scalar OsgEarthNet.uav[9] utilizationSecCharge 23680
scalar OsgEarthNet.uav[9] utilizationSecIdle 229141.1260599
scalar OsgEarthNet.uav[9] utilizationEnergyMission 17055.288162231
scalar OsgEarthNet.uav[9] utilizationEnergyMaintenance 13919.14699173
scalar OsgEarthNet.uav[9] utilizationEnergyCharge 30927.045410156
scalar OsgEarthNet.uav[9] utilizationEnergyOverdrawMission 0
scalar OsgEarthNet.uav[9] utilizationEnergyOverdrawMaintenance 0
scalar OsgEarthNet.uav[9] utilizationCountMissions 7
scalar OsgEarthNet.uav[9] utilizationCountManeuversMission 119
scalar OsgEarthNet.uav[9] utilizationCountManeuversMaintenance 14
scalar OsgEarthNet.uav[9] utilizationCountChargeState 7
scalar OsgEarthNet.uav[9] utilizationCountOverdrawnAfterMission 0
scalar OsgEarthNet.uav[9] utilizationCountIdleState 8
scalar OsgEarthNet.uav[9] utilizationFail 0
scalar OsgEarthNet.uav[9] simulationTime 259200
scalar OsgEarthNet.uav[10] utilizationSecMission 315.14774216574
scalar OsgEarthNet.uav[10] utilizationSecMaintenance 645.51430388878
scalar OsgEarthNet.uav[10] utilizationSecCharge 3270
scalar OsgEarthNet.uav[10] utilizationSecIdle 254969.33695395
scalar OsgEarthNet.uav[10] utilizationEnergyMission 1505.046295166
scalar OsgEarthNet.uav[10] utilizationEnergyMaintenance 2764.4645004272
scalar OsgEarthNet.uav[10] utilizationEnergyCharge 4269.51171875
scalar OsgEarthNet.uav[10] utilizationEnergyOverdrawMission 0
scalar OsgEarthNet.uav[10] utilizationEnergyOverdrawMaintenance 0
scalar OsgEarthNet.uav[10] utilizationCountMissions 1
scalar OsgEarthNet.uav[10] utilizationCountManeuversMission 7
scalar OsgEarthNet.uav[10] utilizationCountManeuversMaintenance 2
scalar OsgEarthNet.uav[10] utilizationCountChargeState 1
scalar OsgEarthNet.uav[10] utilizationCountOverdrawnAfterMission 0
scalar OsgEarthNet.uav[10] utilizationCountIdleState 2
scalar OsgEarthNet.uav[10] utilizationFail 0
scalar OsgEarthNet.uav[10] simulationTime 259200
scalar OsgEarthNet.uav[11] utilizationSecMission 23595.052919563
scalar OsgEarthNet.uav[11] utilizationSecMaintenance 21396.313689638
scalar OsgEarthNet.uav[11] utilizationSecCharge 161852.15757579
scalar OsgEarthNet.uav[11] utilizationSecIdle 52356.474815008
scalar OsgEarthNet.uav[11] utilizationEnergyMission 115748.99164963
scalar OsgEarthNet.uav[11] utilizationEnergyMaintenance 99538.419086456
scalar OsgEarthNet.uav[11] utilizationEnergyCharge 213266.96411133
scalar OsgEarthNet.uav[11] utilizationEnergyOverdrawMission 0
scalar OsgEarthNet.uav[11] utilizationEnergyOverdrawMaintenance 0
scalar OsgEarthNet.uav[11] utilizationCountMissions 48
scalar OsgEarthNet.uav[11] utilizationCountManeuversMission 728
scalar OsgEarthNet.uav[11] utilizationCountManeuversMaintenance 96
scalar OsgEarthNet.uav[11] utilizationCountChargeState 48
scalar OsgEarthNet.uav[11] utilizationCountOverdrawnAfterMission 0
scalar OsgEarthNet.uav[11] utilizationCountIdleState 48
scalar OsgEarthNet.uav[11] utilizationFail 0
scalar OsgEarthNet.uav[11] simulationTime 259200
scalar OsgEarthNet.uav[12] utilizationSecMission 18022.027256693
scalar OsgEarthNet.uav[12] utilizationSecMaintenance 12185.406224216
scalar OsgEarthNet.uav[12] utilizationSecCharge 109110
scalar OsgEarthNet.uav[12] utilizationSecIdle 119882.56551909
scalar OsgEarthNet.uav[12] utilizationEnergyMission 86324.84928894
scalar OsgEarthNet.uav[12] utilizationEnergyMaintenance 56848.168399811
scalar OsgEarthNet.uav[12] utilizationEnergyCharge 142934.26977539
scalar OsgEarthNet.uav[12] utilizationEnergyOverdrawMission 0
scalar OsgEarthNet.uav[12] utilizationEnergyOverdrawMaintenance 0
scalar OsgEarthNet.uav[12] utilizationCountMissions 32
scalar OsgEarthNet.uav[12] utilizationCountManeuversMission 454
scalar OsgEarthNet.uav[12] utilizationCountManeuversMaintenance 64
scalar OsgEarthNet.uav[12] utilizationCountChargeState 32
scalar OsgEarthNet.uav[12] utilizationCountOverdrawnAfterMission 0
scalar OsgEarthNet.uav[12] utilizationCountIdleState 33
scalar OsgEarthNet.uav[12] utilizationFail 0
scalar OsgEarthNet.uav[12] simulationTime 259200
scalar OsgEarthNet.uav[13] utilizationSecMission 406.05775011247
scalar OsgEarthNet.uav[13] utilizationSecMaintenance 476.61924102071
scalar OsgEarthNet.uav[13] utilizationSecCharge 3260
scalar OsgEarthNet.uav[13] utilizationSecIdle 255057.32200887
scalar OsgEarthNet.uav[13] utilizationEnergyMission 1947.7022705078
scalar OsgEarthNet.uav[13] utilizationEnergyMaintenance 2179.5562362671
scalar OsgEarthNet.uav[13] utilizationEnergyCharge 4127.25390625
scalar OsgEarthNet.uav[13] utilizationEnergyOverdrawMission 0
scalar OsgEarthNet.uav[13] utilizationEnergyOverdrawMaintenance 0
scalar OsgEarthNet.uav[13] utilizationCountMissions 1
scalar OsgEarthNet.uav[13] utilizationCountManeuversMission 6
scalar OsgEarthNet.uav[13] utilizationCountManeuversMaintenance 2
scalar OsgEarthNet.uav[13] utilizationCountChargeState 1
scalar OsgEarthNet.uav[13] utilizationCountOverdrawnAfterMission 0
scalar OsgEarthNet.uav[13] utilizationCountIdleState 2
scalar OsgEarthNet.uav[13] utilizationFail 0
scalar OsgEarthNet.uav[13] simulationTime 259200
scalar OsgEarthNet.uav[14] utilizationSecMission 3735.8655549501
scalar OsgEarthNet.uav[14] utilizationSecMaintenance 4564.1722320365
scalar OsgEarthNet.uav[14] utilizationSecCharge 30310
scalar OsgEarthNet.uav[14] utilizationSecIdle 220589.96121301
scalar OsgEarthNet.uav[14] utilizationEnergyMission 17691.719924927
scalar OsgEarthNet.uav[14] utilizationEnergyMaintenance 21319.547157288
scalar OsgEarthNet.uav[14] utilizationEnergyCharge 39590.002929688
scalar OsgEarthNet.uav[14] utilizationEnergyOverdrawMission 0
scalar OsgEarthNet.uav[14] utilizationEnergyOverdrawMaintenance 0
scalar OsgEarthNet.uav[14] utilizationCountMissions 9
scalar OsgEarthNet.uav[14] utilizationCountManeuversMission 101
scalar OsgEarthNet.uav[14] utilizationCountManeuversMaintenance 18
scalar OsgEarthNet.uav[14] utilizationCountChargeState 9
scalar OsgEarthNet.uav[14] utilizationCountOverdrawnAfterMission 0
scalar OsgEarthNet.uav[14] utilizationCountIdleState 10
scalar OsgEarthNet.uav[14] utilizationFail 0
scalar OsgEarthNet.uav[14] simulationTime 259200
scalar OsgEarthNet.uav[15] utilizationSecMission 20316.925237782
scalar OsgEarthNet.uav[15] utilizationSecMaintenance 19345.367983294
scalar OsgEarthNet.uav[15] utilizationSecCharge 143250
scalar OsgEarthNet.uav[15] utilizationSecIdle 76287.705778924
scalar OsgEarthNet.uav[15] utilizationEnergyMission 99334.717285156
scalar OsgEarthNet.uav[15] utilizationEnergyMaintenance 89095.859230041
scalar OsgEarthNet.uav[15] utilizationEnergyCharge 187211.83789062
scalar OsgEarthNet.uav[15] utilizationEnergyOverdrawMission 0
scalar OsgEarthNet.uav[15] utilizationEnergyOverdrawMaintenance 0
scalar OsgEarthNet.uav[15] utilizationCountMissions 42
scalar OsgEarthNet.uav[15] utilizationCountManeuversMission 646
scalar OsgEarthNet.uav[15] utilizationCountManeuversMaintenance 84
scalar OsgEarthNet.uav[15] utilizationCountChargeState 42
scalar OsgEarthNet.uav[15] utilizationCountOverdrawnAfterMission 0
scalar OsgEarthNet.uav[15] utilizationCountIdleState 43
scalar OsgEarthNet.uav[15] utilizationFail 0
scalar OsgEarthNet.uav[15] simulationTime 259200
scalar OsgEarthNet.uav[16] utilizationSecMission 1732.2922892806
scalar OsgEarthNet.uav[16] utilizationSecMaintenance 1079.8620200748
scalar OsgEarthNet.uav[16] utilizationSecCharge 10480
scalar OsgEarthNet.uav[16] utilizationSecIdle 245907.84469064
scalar OsgEarthNet.uav[16] utilizationEnergyMission 8252.8775024414
scalar OsgEarthNet.uav[16] utilizationEnergyMaintenance 5350.4759979248
scalar OsgEarthNet.uav[16] utilizationEnergyCharge 13782.69140625
scalar OsgEarthNet.uav[16] utilizationEnergyOverdrawMission 0
scalar OsgEarthNet.uav[16] utilizationEnergyOverdrawMaintenance 0
scalar OsgEarthNet.uav[16] utilizationCountMissions 3
scalar OsgEarthNet.uav[16] utilizationCountManeuversMission 45
scalar OsgEarthNet.uav[16] utilizationCountManeuversMaintenance 6
scalar OsgEarthNet.uav[16] utilizationCountChargeState 3
scalar OsgEarthNet.uav[16] utilizationCountOverdrawnAfterMission 0
scalar OsgEarthNet.uav[16] utilizationCountIdleState 4
scalar OsgEarthNet.uav[16] utilizationFail 0
scalar OsgEarthNet.uav[16] simulationTime 259200
scalar OsgEarthNet.uav[17] utilizationSecMission 26440.646988863
scalar OsgEarthNet.uav[17] utilizationSecMaintenance 24334.022240991
scalar OsgEarthNet.uav[17] utilizationSecCharge 181824.36678381
scalar OsgEarthNet.uav[17] utilizationSecIdle 26600.962986334
scalar OsgEarthNet.uav[17] utilizationEnergyMission 129808.36974335
scalar OsgEarthNet.uav[17] utilizationEnergyMaintenance 112867.97381592
scalar OsgEarthNet.uav[17] utilizationEnergyCharge 240475.80493164
scalar OsgEarthNet.uav[17] utilizationEnergyOverdrawMission 0
scalar OsgEarthNet.uav[17] utilizationEnergyOverdrawMaintenance 76.382232666016
scalar OsgEarthNet.uav[17] utilizationCountMissions 53
scalar OsgEarthNet.uav[17] utilizationCountManeuversMission 773
scalar OsgEarthNet.uav[17] utilizationCountManeuversMaintenance 106
scalar OsgEarthNet.uav[17] utilizationCountChargeState 53
scalar OsgEarthNet.uav[17] utilizationCountOverdrawnAfterMission 1
scalar OsgEarthNet.uav[17] utilizationCountIdleState 53
scalar OsgEarthNet.uav[17] utilizationFail 0
scalar OsgEarthNet.uav[17] simulationTime 259200
scalar OsgEarthNet.uav[18] utilizationSecMission 24875.829978799
scalar OsgEarthNet.uav[18] utilizationSecMaintenance 20134.433400412
scalar OsgEarthNet.uav[18] utilizationSecCharge 162110
scalar OsgEarthNet.uav[18] utilizationSecIdle 52079.735620789
scalar OsgEarthNet.uav[18] utilizationEnergyMission 118932.22670746
scalar OsgEarthNet.uav[18] utilizationEnergyMaintenance 92921.932502747
scalar OsgEarthNet.uav[18] utilizationEnergyCharge 211799.1472168
scalar OsgEarthNet.uav[18] utilizationEnergyOverdrawMission 0
scalar OsgEarthNet.uav[18] utilizationEnergyOverdrawMaintenance 0
scalar OsgEarthNet.uav[18] utilizationCountMissions 48
scalar OsgEarthNet.uav[18] utilizationCountManeuversMission 759
scalar OsgEarthNet.uav[18] utilizationCountManeuversMaintenance 96
scalar OsgEarthNet.uav[18] utilizationCountChargeState 48
scalar OsgEarthNet.uav[18] utilizationCountOverdrawnAfterMission 0
scalar OsgEarthNet.uav[18] utilizationCountIdleState 49
scalar OsgEarthNet.uav[18] utilizationFail 0
scalar OsgEarthNet.uav[18] simulationTime 259200
scalar OsgEarthNet.uav[19] utilizationSecMission 785.70143890194
scalar OsgEarthNet.uav[19] utilizationSecMaintenance 361.00444870582
scalar OsgEarthNet.uav[19] utilizationSecCharge 3690
scalar OsgEarthNet.uav[19] utilizationSecIdle 254363.29311239
scalar OsgEarthNet.uav[19] utilizationEnergyMission 3508.9327850342
scalar OsgEarthNet.uav[19] utilizationEnergyMaintenance 1585.2743301392
scalar OsgEarthNet.uav[19] utilizationEnergyCharge 4915.4931640625
scalar OsgEarthNet.uav[19] utilizationEnergyOverdrawMission 0
scalar OsgEarthNet.uav[19] utilizationEnergyOverdrawMaintenance 0
scalar OsgEarthNet.uav[19] utilizationCountMissions 1
scalar OsgEarthNet.uav[19] utilizationCountManeuversMission 12
scalar OsgEarthNet.uav[19] utilizationCountManeuversMaintenance 2
scalar OsgEarthNet.uav[19] utilizationCountChargeState 1
scalar OsgEarthNet.uav[19] utilizationCountOverdrawnAfterMission 0
scalar OsgEarthNet.uav[19] utilizationCountIdleState 2
scalar OsgEarthNet.uav[19] utilizationFail 0
scalar OsgEarthNet.uav[19] simulationTime 259200
scalar OsgEarthNet.uav[20] utilizationSecMission 520
scalar OsgEarthNet.uav[20] utilizationSecMaintenance 363.8841636065
scalar OsgEarthNet.uav[20] utilizationSecCharge 3360
scalar OsgEarthNet.uav[20] utilizationSecIdle 254956.11483639
scalar OsgEarthNet.uav[20] utilizationEnergyMission 2559.9180145264
scalar OsgEarthNet.uav[20] utilizationEnergyMaintenance 1606.2028923035
scalar OsgEarthNet.uav[20] utilizationEnergyCharge 4358.7099609375
scalar OsgEarthNet.uav[20] utilizationEnergyOverdrawMission 0
scalar OsgEarthNet.uav[20] utilizationEnergyOverdrawMaintenance 0
scalar OsgEarthNet.uav[20] utilizationCountMissions 1
scalar OsgEarthNet.uav[20] utilizationCountManeuversMission 26
scalar OsgEarthNet.uav[20] utilizationCountManeuversMaintenance 2
scalar OsgEarthNet.uav[20] utilizationCountChargeState 1
scalar OsgEarthNet.uav[20] utilizationCountOverdrawnAfterMission 0
scalar OsgEarthNet.uav[20] utilizationCountIdleState 2
scalar OsgEarthNet.uav[20] utilizationFail 0
scalar OsgEarthNet.uav[20] simulationTime 259200
scalar OsgEarthNet.uav[21] utilizationSecMission 25994.661331855
scalar OsgEarthNet.uav[21] utilizationSecMaintenance 22943.330668145
scalar OsgEarthNet.uav[21] utilizationSecCharge 175680
scalar OsgEarthNet.uav[21] utilizationSecIdle 34582.007
scalar OsgEarthNet.uav[21] utilizationEnergyMission 125978.6334468
scalar OsgEarthNet.uav[21] utilizationEnergyMaintenance 105094.17381668
scalar OsgEarthNet.uav[21] utilizationEnergyCharge 229610.41479492
scalar OsgEarthNet.uav[21] utilizationEnergyOverdrawMission 0
scalar OsgEarthNet.uav[21] utilizationEnergyOverdrawMaintenance 0
scalar OsgEarthNet.uav[21] utilizationCountMissions 52
scalar OsgEarthNet.uav[21] utilizationCountManeuversMission 747
scalar OsgEarthNet.uav[21] utilizationCountManeuversMaintenance 105
scalar OsgEarthNet.uav[21] utilizationCountChargeState 52
scalar OsgEarthNet.uav[21] utilizationCountOverdrawnAfterMission 0
scalar OsgEarthNet.uav[21] utilizationCountIdleState 53
scalar OsgEarthNet.uav[21] utilizationFail 0
scalar OsgEarthNet.uav[21] simulationTime 259200
scalar OsgEarthNet.uav[22] utilizationSecMission 21207.881385696
scalar OsgEarthNet.uav[22] utilizationSecMaintenance 17356.198134638
scalar OsgEarthNet.uav[22] utilizationSecCharge 142006.46112836
scalar OsgEarthNet.uav[22] utilizationSecIdle 78629.458351306
scalar OsgEarthNet.uav[22] utilizationEnergyMission 102448.51390457
scalar OsgEarthNet.uav[22] utilizationEnergyMaintenance 79787.334037781
scalar OsgEarthNet.uav[22] utilizationEnergyCharge 185745.15209961
scalar OsgEarthNet.uav[22] utilizationEnergyOverdrawMission 0
scalar OsgEarthNet.uav[22] utilizationEnergyOverdrawMaintenance 0
scalar OsgEarthNet.uav[22] utilizationCountMissions 42
scalar OsgEarthNet.uav[22] utilizationCountManeuversMission 709
scalar OsgEarthNet.uav[22] utilizationCountManeuversMaintenance 84
scalar OsgEarthNet.uav[22] utilizationCountChargeState 42
scalar OsgEarthNet.uav[22] utilizationCountOverdrawnAfterMission 0
scalar OsgEarthNet.uav[22] utilizationCountIdleState 42
scalar OsgEarthNet.uav[22] utilizationFail 0
scalar OsgEarthNet.uav[22] simulationTime 259200
scalar OsgEarthNet.uav[23] utilizationSecMission 682.66907384813
scalar OsgEarthNet.uav[23] utilizationSecMaintenance 433.65755557869
scalar OsgEarthNet.uav[23] utilizationSecCharge 3580
scalar OsgEarthNet.uav[23] utilizationSecIdle 254503.67237057
scalar OsgEarthNet.uav[23] utilizationEnergyMission 3011.4872741699
scalar OsgEarthNet.uav[23] utilizationEnergyMaintenance 1970.1577682495
scalar OsgEarthNet.uav[23] utilizationEnergyCharge 4862.482421875
scalar OsgEarthNet.uav[23] utilizationEnergyOverdrawMission 0
scalar OsgEarthNet.uav[23] utilizationEnergyOverdrawMaintenance 0
scalar OsgEarthNet.uav[23] utilizationCountMissions 1
scalar OsgEarthNet.uav[23] utilizationCountManeuversMission 11
scalar OsgEarthNet.uav[23] utilizationCountManeuversMaintenance 2
scalar OsgEarthNet.uav[23] utilizationCountChargeState 1
scalar OsgEarthNet.uav[23] utilizationCountOverdrawnAfterMission 0
scalar OsgEarthNet.uav[23] utilizationCountIdleState 2
scalar OsgEarthNet.uav[23] utilizationFail 0
scalar OsgEarthNet.uav[23] simulationTime 259200
scalar OsgEarthNet.uav[24] utilizationSecMission 25251.131778473
scalar OsgEarthNet.uav[24] utilizationSecMaintenance 21204.96768734
scalar OsgEarthNet.uav[24] utilizationSecCharge 168790
scalar OsgEarthNet.uav[24] utilizationSecIdle 43953.899534188
scalar OsgEarthNet.uav[24] utilizationEnergyMission 122955.19921494
scalar OsgEarthNet.uav[24] utilizationEnergyMaintenance 97880.695030212
scalar OsgEarthNet.uav[24] utilizationEnergyCharge 220322.05664062
scalar OsgEarthNet.uav[24] utilizationEnergyOverdrawMission 0
scalar OsgEarthNet.uav[24] utilizationEnergyOverdrawMaintenance 0
scalar OsgEarthNet.uav[24] utilizationCountMissions 50
scalar OsgEarthNet.uav[24] utilizationCountManeuversMission 761
scalar OsgEarthNet.uav[24] utilizationCountManeuversMaintenance 100
scalar OsgEarthNet.uav[24] utilizationCountChargeState 50
scalar OsgEarthNet.uav[24] utilizationCountOverdrawnAfterMission 0
scalar OsgEarthNet.uav[24] utilizationCountIdleState 51
scalar OsgEarthNet.uav[24] utilizationFail 0
scalar OsgEarthNet.uav[24] simulationTime 259200
scalar OsgEarthNet.uav[25] utilizationSecMission 27131.619670542
scalar OsgEarthNet.uav[25] utilizationSecMaintenance 23395.306507323
scalar OsgEarthNet.uav[25] utilizationSecCharge 180821.07182214
scalar OsgEarthNet.uav[25] utilizationSecIdle 27852.001
scalar OsgEarthNet.uav[25] utilizationEnergyMission 129325.00421906
scalar OsgEarthNet.uav[25] utilizationEnergyMaintenance 108640.39180756
scalar OsgEarthNet.uav[25] utilizationEnergyCharge 238132.74072266
scalar OsgEarthNet.uav[25] utilizationEnergyOverdrawMission 0
scalar OsgEarthNet.uav[25] utilizationEnergyOverdrawMaintenance 0
scalar OsgEarthNet.uav[25] utilizationCountMissions 53
scalar OsgEarthNet.uav[25] utilizationCountManeuversMission 811
scalar OsgEarthNet.uav[25] utilizationCountManeuversMaintenance 106
scalar OsgEarthNet.uav[25] utilizationCountChargeState 53
scalar OsgEarthNet.uav[25] utilizationCountOverdrawnAfterMission 0
scalar OsgEarthNet.uav[25] utilizationCountIdleState 53
scalar OsgEarthNet.uav[25] utilizationFail 0
scalar OsgEarthNet.uav[25] simulationTime 259200
scalar OsgEarthNet.uav[26] utilizationSecMission 26919.2901933
scalar OsgEarthNet.uav[26] utilizationSecMaintenance 23078.7048067
scalar OsgEarthNet.uav[26] utilizationSecCharge 179410
scalar OsgEarthNet.uav[26] utilizationSecIdle 29792.004
scalar OsgEarthNet.uav[26] utilizationEnergyMission 128911.27353815
scalar OsgEarthNet.uav[26] utilizationEnergyMaintenance 107913.91095734
scalar OsgEarthNet.uav[26] utilizationEnergyCharge 234613.36279297
scalar OsgEarthNet.uav[26] utilizationEnergyOverdrawMission 0
scalar OsgEarthNet.uav[26] utilizationEnergyOverdrawMaintenance 0
scalar OsgEarthNet.uav[26] utilizationCountMissions 53
scalar OsgEarthNet.uav[26] utilizationCountManeuversMission 866
scalar OsgEarthNet.uav[26] utilizationCountManeuversMaintenance 107
scalar OsgEarthNet.uav[26] utilizationCountChargeState 53
scalar OsgEarthNet.uav[26] utilizationCountOverdrawnAfterMission 0
scalar OsgEarthNet.uav[26] utilizationCountIdleState 54
scalar OsgEarthNet.uav[26] utilizationFail 0
scalar OsgEarthNet.uav[26] simulationTime 259200
scalar OsgEarthNet.uav[27] utilizationSecMission 28498.788020223
scalar OsgEarthNet.uav[27] utilizationSecMaintenance 22873.418922541
scalar OsgEarthNet.uav[27] utilizationSecCharge 182225.79105724
scalar OsgEarthNet.uav[27] utilizationSecIdle 25602.001
scalar OsgEarthNet.uav[27] utilizationEnergyMission 135319.55154037
scalar OsgEarthNet.uav[27] utilizationEnergyMaintenance 106035.49206161
scalar OsgEarthNet.uav[27] utilizationEnergyCharge 239465.79077148
scalar OsgEarthNet.uav[27] utilizationEnergyOverdrawMission 0
scalar OsgEarthNet.uav[27] utilizationEnergyOverdrawMaintenance 0
scalar OsgEarthNet.uav[27] utilizationCountMissions 54
scalar OsgEarthNet.uav[27] utilizationCountManeuversMission 742
scalar OsgEarthNet.uav[27] utilizationCountManeuversMaintenance 108
scalar OsgEarthNet.uav[27] utilizationCountChargeState 54
scalar OsgEarthNet.uav[27] utilizationCountOverdrawnAfterMission 0
scalar OsgEarthNet.uav[27] utilizationCountIdleState 54
scalar OsgEarthNet.uav[27] utilizationFail 0
scalar OsgEarthNet.uav[27] simulationTime 259200
scalar OsgEarthNet.uav[28] utilizationSecMission 24812.000417052
scalar OsgEarthNet.uav[28] utilizationSecMaintenance 23472.548436361
scalar OsgEarthNet.uav[28] utilizationSecCharge 172773.44714659
scalar OsgEarthNet.uav[28] utilizationSecIdle 38142.003
scalar OsgEarthNet.uav[28] utilizationEnergyMission 121020.30569458
scalar OsgEarthNet.uav[28] utilizationEnergyMaintenance 108908.0700264
scalar OsgEarthNet.uav[28] utilizationEnergyCharge 227969.48681641
scalar OsgEarthNet.uav[28] utilizationEnergyOverdrawMission 0
scalar OsgEarthNet.uav[28] utilizationEnergyOverdrawMaintenance 99.459815979004
scalar OsgEarthNet.uav[28] utilizationCountMissions 51
scalar OsgEarthNet.uav[28] utilizationCountManeuversMission 836
scalar OsgEarthNet.uav[28] utilizationCountManeuversMaintenance 102
scalar OsgEarthNet.uav[28] utilizationCountChargeState 51
scalar OsgEarthNet.uav[28] utilizationCountOverdrawnAfterMission 1
scalar OsgEarthNet.uav[28] utilizationCountIdleState 51
scalar OsgEarthNet.uav[28] utilizationFail 0
scalar OsgEarthNet.uav[28] simulationTime 259200
scalar OsgEarthNet.uav[29] utilizationSecMission 21353.35080001
scalar OsgEarthNet.uav[29] utilizationSecMaintenance 20385.789362413
scalar OsgEarthNet.uav[29] utilizationSecCharge 151160
scalar OsgEarthNet.uav[29] utilizationSecIdle 66300.858837578
scalar OsgEarthNet.uav[29] utilizationEnergyMission 101960.72612762
scalar OsgEarthNet.uav[29] utilizationEnergyMaintenance 95438.339015961
scalar OsgEarthNet.uav[29] utilizationEnergyCharge 197040.18115234
scalar OsgEarthNet.uav[29] utilizationEnergyOverdrawMission 0
scalar OsgEarthNet.uav[29] utilizationEnergyOverdrawMaintenance 0
scalar OsgEarthNet.uav[29] utilizationCountMissions 45
scalar OsgEarthNet.uav[29] utilizationCountManeuversMission 683
scalar OsgEarthNet.uav[29] utilizationCountManeuversMaintenance 90
scalar OsgEarthNet.uav[29] utilizationCountChargeState 45
scalar OsgEarthNet.uav[29] utilizationCountOverdrawnAfterMission 0
scalar OsgEarthNet.uav[29] utilizationCountIdleState 46
scalar OsgEarthNet.uav[29] utilizationFail 0
scalar OsgEarthNet.uav[29] simulationTime 259200
scalar OsgEarthNet.uav[30] utilizationSecMission 26489.753791663
scalar OsgEarthNet.uav[30] utilizationSecMaintenance 23081.724930878
scalar OsgEarthNet.uav[30] utilizationSecCharge 180185.12815992
scalar OsgEarthNet.uav[30] utilizationSecIdle 29443.392117534
scalar OsgEarthNet.uav[30] utilizationEnergyMission 129335.62822342
scalar OsgEarthNet.uav[30] utilizationEnergyMaintenance 108263.30744171
scalar OsgEarthNet.uav[30] utilizationEnergyCharge 237469.11865234
scalar OsgEarthNet.uav[30] utilizationEnergyOverdrawMission 0
scalar OsgEarthNet.uav[30] utilizationEnergyOverdrawMaintenance 7.7714152336121
scalar OsgEarthNet.uav[30] utilizationCountMissions 53
scalar OsgEarthNet.uav[30] utilizationCountManeuversMission 824
scalar OsgEarthNet.uav[30] utilizationCountManeuversMaintenance 106
scalar OsgEarthNet.uav[30] utilizationCountChargeState 53
scalar OsgEarthNet.uav[30] utilizationCountOverdrawnAfterMission 1
scalar OsgEarthNet.uav[30] utilizationCountIdleState 53
scalar OsgEarthNet.uav[30] utilizationFail 0
scalar OsgEarthNet.uav[30] simulationTime 259200
scalar OsgEarthNet.uav[31] utilizationSecMission 25201.521858821
scalar OsgEarthNet.uav[31] utilizationSecMaintenance 20782.340739694
scalar OsgEarthNet.uav[31] utilizationSecCharge 166114.12740148
scalar OsgEarthNet.uav[31] utilizationSecIdle 47102.009
scalar OsgEarthNet.uav[31] utilizationEnergyMission 121878.36916351
scalar OsgEarthNet.uav[31] utilizationEnergyMaintenance 97277.404891968
scalar OsgEarthNet.uav[31] utilizationEnergyCharge 219071.15478516
scalar OsgEarthNet.uav[31] utilizationEnergyOverdrawMission 0
scalar OsgEarthNet.uav[31] utilizationEnergyOverdrawMaintenance 0
scalar OsgEarthNet.uav[31] utilizationCountMissions 49
scalar OsgEarthNet.uav[31] utilizationCountManeuversMission 726
scalar OsgEarthNet.uav[31] utilizationCountManeuversMaintenance 98
scalar OsgEarthNet.uav[31] utilizationCountChargeState 49
scalar OsgEarthNet.uav[31] utilizationCountOverdrawnAfterMission 0
scalar OsgEarthNet.uav[31] utilizationCountIdleState 49
scalar OsgEarthNet.uav[31] utilizationFail 0
scalar OsgEarthNet.uav[31] simulationTime 259200
scalar OsgEarthNet.uav[32] utilizationSecMission 10422.711387879
scalar OsgEarthNet.uav[32] utilizationSecMaintenance 8821.2807634555
scalar OsgEarthNet.uav[32] utilizationSecCharge 68330
scalar OsgEarthNet.uav[32] utilizationSecIdle 171626.00684867
scalar OsgEarthNet.uav[32] utilizationEnergyMission 48101.559108734
scalar OsgEarthNet.uav[32] utilizationEnergyMaintenance 40350.662746429
scalar OsgEarthNet.uav[32] utilizationEnergyCharge 89471.194335938
scalar OsgEarthNet.uav[32] utilizationEnergyOverdrawMission 0
scalar OsgEarthNet.uav[32] utilizationEnergyOverdrawMaintenance 0
scalar OsgEarthNet.uav[32] utilizationCountMissions 20
scalar OsgEarthNet.uav[32] utilizationCountManeuversMission 249
scalar OsgEarthNet.uav[32] utilizationCountManeuversMaintenance 40
scalar OsgEarthNet.uav[32] utilizationCountChargeState 20
scalar OsgEarthNet.uav[32] utilizationCountOverdrawnAfterMission 0
scalar OsgEarthNet.uav[32] utilizationCountIdleState 21
scalar OsgEarthNet.uav[32] utilizationFail 0
scalar OsgEarthNet.uav[32] simulationTime 259200
scalar OsgEarthNet.uav[33] utilizationSecMission 24521.811846134
scalar OsgEarthNet.uav[33] utilizationSecMaintenance 26145.665047532
scalar OsgEarthNet.uav[33] utilizationSecCharge 181101.00844538
scalar OsgEarthNet.uav[33] utilizationSecIdle 27431.51366095
scalar OsgEarthNet.uav[33] utilizationEnergyMission 120953.93093109
scalar OsgEarthNet.uav[33] utilizationEnergyMaintenance 121475.5945282
scalar OsgEarthNet.uav[33] utilizationEnergyCharge 237552.7220459
scalar OsgEarthNet.uav[33] utilizationEnergyOverdrawMission 0
scalar OsgEarthNet.uav[33] utilizationEnergyOverdrawMaintenance 95.478825569153
scalar OsgEarthNet.uav[33] utilizationCountMissions 54
scalar OsgEarthNet.uav[33] utilizationCountManeuversMission 814
scalar OsgEarthNet.uav[33] utilizationCountManeuversMaintenance 108
scalar OsgEarthNet.uav[33] utilizationCountChargeState 54
scalar OsgEarthNet.uav[33] utilizationCountOverdrawnAfterMission 2
scalar OsgEarthNet.uav[33] utilizationCountIdleState 54
scalar OsgEarthNet.uav[33] utilizationFail 0
scalar OsgEarthNet.uav[33] simulationTime 259200
scalar OsgEarthNet.uav[34] utilizationSecMission 27321.095739783
scalar OsgEarthNet.uav[34] utilizationSecMaintenance 23144.095886218
scalar OsgEarthNet.uav[34] utilizationSecCharge 182970
scalar OsgEarthNet.uav[34] utilizationSecIdle 25764.807373999
scalar OsgEarthNet.uav[34] utilizationEnergyMission 132164.21988526
scalar OsgEarthNet.uav[34] utilizationEnergyMaintenance 109101.23833466
scalar OsgEarthNet.uav[34] utilizationEnergyCharge 239022.12939453
scalar OsgEarthNet.uav[34] utilizationEnergyOverdrawMission 0
scalar OsgEarthNet.uav[34] utilizationEnergyOverdrawMaintenance 0
scalar OsgEarthNet.uav[34] utilizationCountMissions 54
scalar OsgEarthNet.uav[34] utilizationCountManeuversMission 802
scalar OsgEarthNet.uav[34] utilizationCountManeuversMaintenance 109
scalar OsgEarthNet.uav[34] utilizationCountChargeState 54
scalar OsgEarthNet.uav[34] utilizationCountOverdrawnAfterMission 0
scalar OsgEarthNet.uav[34] utilizationCountIdleState 55
scalar OsgEarthNet.uav[34] utilizationFail 0
scalar OsgEarthNet.uav[34] simulationTime 259200
scalar OsgEarthNet.uav[35] utilizationSecMission 28369.562700947
scalar OsgEarthNet.uav[35] utilizationSecMaintenance 22684.228196579
scalar OsgEarthNet.uav[35] utilizationSecCharge 182374.20810247
scalar OsgEarthNet.uav[35] utilizationSecIdle 25772
scalar OsgEarthNet.uav[35] utilizationEnergyMission 134402.79821595
scalar OsgEarthNet.uav[35] utilizationEnergyMaintenance 105745.23831558
scalar OsgEarthNet.uav[35] utilizationEnergyCharge 239590.33691406
scalar OsgEarthNet.uav[35] utilizationEnergyOverdrawMission 0
scalar OsgEarthNet.uav[35] utilizationEnergyOverdrawMaintenance 0
scalar OsgEarthNet.uav[35] utilizationCountMissions 54
scalar OsgEarthNet.uav[35] utilizationCountManeuversMission 778
scalar OsgEarthNet.uav[35] utilizationCountManeuversMaintenance 107
scalar OsgEarthNet.uav[35] utilizationCountChargeState 54
scalar OsgEarthNet.uav[35] utilizationCountOverdrawnAfterMission 0
scalar OsgEarthNet.uav[35] utilizationCountIdleState 54
scalar OsgEarthNet.uav[35] utilizationFail 0
scalar OsgEarthNet.uav[35] simulationTime 259200
scalar OsgEarthNet.uav[36] utilizationSecMission 25623.416748248
scalar OsgEarthNet.uav[36] utilizationSecMaintenance 21968.399562474
scalar OsgEarthNet.uav[36] utilizationSecCharge 170966.17368928
scalar OsgEarthNet.uav[36] utilizationSecIdle 40642.009
scalar OsgEarthNet.uav[36] utilizationEnergyMission 125284.60153961
scalar OsgEarthNet.uav[36] utilizationEnergyMaintenance 102055.21506119
scalar OsgEarthNet.uav[36] utilizationEnergyCharge 224479.77880859
scalar OsgEarthNet.uav[36] utilizationEnergyOverdrawMission 0
scalar OsgEarthNet.uav[36] utilizationEnergyOverdrawMaintenance 0
scalar OsgEarthNet.uav[36] utilizationCountMissions 51
scalar OsgEarthNet.uav[36] utilizationCountManeuversMission 807
scalar OsgEarthNet.uav[36] utilizationCountManeuversMaintenance 102
scalar OsgEarthNet.uav[36] utilizationCountChargeState 51
scalar OsgEarthNet.uav[36] utilizationCountOverdrawnAfterMission 0
scalar OsgEarthNet.uav[36] utilizationCountIdleState 51
scalar OsgEarthNet.uav[36] utilizationFail 0
scalar OsgEarthNet.uav[36] simulationTime 259200
scalar OsgEarthNet.uav[37] utilizationSecMission 25635.894662728
scalar OsgEarthNet.uav[37] utilizationSecMaintenance 24107.910021305
scalar OsgEarthNet.uav[37] utilizationSecCharge 181684.18831597
scalar OsgEarthNet.uav[37] utilizationSecIdle 27772.006
scalar OsgEarthNet.uav[37] utilizationEnergyMission 124779.97305298
scalar OsgEarthNet.uav[37] utilizationEnergyMaintenance 112146.659729
scalar OsgEarthNet.uav[37] utilizationEnergyCharge 237925.0769043
scalar OsgEarthNet.uav[37] utilizationEnergyOverdrawMission 0
scalar OsgEarthNet.uav[37] utilizationEnergyOverdrawMaintenance 0
scalar OsgEarthNet.uav[37] utilizationCountMissions 54
scalar OsgEarthNet.uav[37] utilizationCountManeuversMission 870
scalar OsgEarthNet.uav[37] utilizationCountManeuversMaintenance 108
scalar OsgEarthNet.uav[37] utilizationCountChargeState 54
scalar OsgEarthNet.uav[37] utilizationCountOverdrawnAfterMission 0
scalar OsgEarthNet.uav[37] utilizationCountIdleState 54
scalar OsgEarthNet.uav[37] utilizationFail 0
scalar OsgEarthNet.uav[37] simulationTime 259200
scalar OsgEarthNet.uav[38] utilizationSecMission 26719.192817115
scalar OsgEarthNet.uav[38] utilizationSecMaintenance 24018.806182885
scalar OsgEarthNet.uav[38] utilizationSecCharge 183040
scalar OsgEarthNet.uav[38] utilizationSecIdle 25422
scalar OsgEarthNet.uav[38] utilizationEnergyMission 130753.1427733
scalar OsgEarthNet.uav[38] utilizationEnergyMaintenance 110105.05884171
scalar OsgEarthNet.uav[38] utilizationEnergyCharge 239604.22265625
scalar OsgEarthNet.uav[38] utilizationEnergyOverdrawMission 0
scalar OsgEarthNet.uav[38] utilizationEnergyOverdrawMaintenance 0
scalar OsgEarthNet.uav[38] utilizationCountMissions 54
scalar OsgEarthNet.uav[38] utilizationCountManeuversMission 916
scalar OsgEarthNet.uav[38] utilizationCountManeuversMaintenance 109
scalar OsgEarthNet.uav[38] utilizationCountChargeState 54
scalar OsgEarthNet.uav[38] utilizationCountOverdrawnAfterMission 0
scalar OsgEarthNet.uav[38] utilizationCountIdleState 55
scalar OsgEarthNet.uav[38] utilizationFail 0
scalar OsgEarthNet.uav[38] simulationTime 259200
scalar OsgEarthNet.uav[39] utilizationSecMission 28229.532985899
scalar OsgEarthNet.uav[39] utilizationSecMaintenance 22553.676204032
scalar OsgEarthNet.uav[39] utilizationSecCharge 181534.78881007
scalar OsgEarthNet.uav[39] utilizationSecIdle 26882.001
scalar OsgEarthNet.uav[39] utilizationEnergyMission 136874.24158096
scalar OsgEarthNet.uav[39] utilizationEnergyMaintenance 104667.57196045
scalar OsgEarthNet.uav[39] utilizationEnergyCharge 238222.83666992
scalar OsgEarthNet.uav[39] utilizationEnergyOverdrawMission 0
scalar OsgEarthNet.uav[39] utilizationEnergyOverdrawMaintenance 0
scalar OsgEarthNet.uav[39] utilizationCountMissions 54
scalar OsgEarthNet.uav[39] utilizationCountManeuversMission 909
scalar OsgEarthNet.uav[39] utilizationCountManeuversMaintenance 108
scalar OsgEarthNet.uav[39] utilizationCountChargeState 54
scalar OsgEarthNet.uav[39] utilizationCountOverdrawnAfterMission 0
scalar OsgEarthNet.uav[39] utilizationCountIdleState 54
scalar OsgEarthNet.uav[39] utilizationFail 0
scalar OsgEarthNet.uav[39] simulationTime 259200
scalar OsgEarthNet.uav[40] utilizationSecMission 480
scalar OsgEarthNet.uav[40] utilizationSecMaintenance 363.8841636065
scalar OsgEarthNet.uav[40] utilizationSecCharge 3280
scalar OsgEarthNet.uav[40] utilizationSecIdle 255076.11483639
scalar OsgEarthNet.uav[40] utilizationEnergyMission 2786.4896850586
scalar OsgEarthNet.uav[40] utilizationEnergyMaintenance 1708.9550895691
scalar OsgEarthNet.uav[40] utilizationEnergyCharge 4240.9809570312
scalar OsgEarthNet.uav[40] utilizationEnergyOverdrawMission 0
scalar OsgEarthNet.uav[40] utilizationEnergyOverdrawMaintenance 0
scalar OsgEarthNet.uav[40] utilizationCountMissions 1
scalar OsgEarthNet.uav[40] utilizationCountManeuversMission 24
scalar OsgEarthNet.uav[40] utilizationCountManeuversMaintenance 2
scalar OsgEarthNet.uav[40] utilizationCountChargeState 1
scalar OsgEarthNet.uav[40] utilizationCountOverdrawnAfterMission 0
scalar OsgEarthNet.uav[40] utilizationCountIdleState 2
scalar OsgEarthNet.uav[40] utilizationFail 0
scalar OsgEarthNet.uav[40] simulationTime 259200
scalar OsgEarthNet.uav[41] utilizationSecMission 26856.567511919
scalar OsgEarthNet.uav[41] utilizationSecMaintenance 24184.168441119
scalar OsgEarthNet.uav[41] utilizationSecCharge 185927.26304696
scalar OsgEarthNet.uav[41] utilizationSecIdle 22232
scalar OsgEarthNet.uav[41] utilizationEnergyMission 130121.47147751
scalar OsgEarthNet.uav[41] utilizationEnergyMaintenance 113653.93916702
scalar OsgEarthNet.uav[41] utilizationEnergyCharge 242974.87915039
scalar OsgEarthNet.uav[41] utilizationEnergyOverdrawMission 0
scalar OsgEarthNet.uav[41] utilizationEnergyOverdrawMaintenance 0
scalar OsgEarthNet.uav[41] utilizationCountMissions 55
scalar OsgEarthNet.uav[41] utilizationCountManeuversMission 806
scalar OsgEarthNet.uav[41] utilizationCountManeuversMaintenance 110
scalar OsgEarthNet.uav[41] utilizationCountChargeState 55
scalar OsgEarthNet.uav[41] utilizationCountOverdrawnAfterMission 0
scalar OsgEarthNet.uav[41] utilizationCountIdleState 55
scalar OsgEarthNet.uav[41] utilizationFail 0
scalar OsgEarthNet.uav[41] simulationTime 259200
scalar OsgEarthNet.uav[42] utilizationSecMission 23758.572129848
scalar OsgEarthNet.uav[42] utilizationSecMaintenance 20123.400773612
scalar OsgEarthNet.uav[42] utilizationSecCharge 159150
scalar OsgEarthNet.uav[42] utilizationSecIdle 56168.026096539
scalar OsgEarthNet.uav[42] utilizationEnergyMission 117129.27725983
scalar OsgEarthNet.uav[42] utilizationEnergyMaintenance 92609.570755005
scalar OsgEarthNet.uav[42] utilizationEnergyCharge 208341.09277344
scalar OsgEarthNet.uav[42] utilizationEnergyOverdrawMission 0
scalar OsgEarthNet.uav[42] utilizationEnergyOverdrawMaintenance 0
scalar OsgEarthNet.uav[42] utilizationCountMissions 47
scalar OsgEarthNet.uav[42] utilizationCountManeuversMission 816
scalar OsgEarthNet.uav[42] utilizationCountManeuversMaintenance 94
scalar OsgEarthNet.uav[42] utilizationCountChargeState 47
scalar OsgEarthNet.uav[42] utilizationCountOverdrawnAfterMission 0
scalar OsgEarthNet.uav[42] utilizationCountIdleState 48
scalar OsgEarthNet.uav[42] utilizationFail 0
scalar OsgEarthNet.uav[42] simulationTime 259200
scalar OsgEarthNet.uav[43] utilizationSecMission 26044.356833892
scalar OsgEarthNet.uav[43] utilizationSecMaintenance 19738.755844047
scalar OsgEarthNet.uav[43] utilizationSecCharge 164765.06459678
scalar OsgEarthNet.uav[43] utilizationSecIdle 48651.821725284
scalar OsgEarthNet.uav[43] utilizationEnergyMission 127201.53889465
scalar OsgEarthNet.uav[43] utilizationEnergyMaintenance 91255.957553863
scalar OsgEarthNet.uav[43] utilizationEnergyCharge 216611.74414062
scalar OsgEarthNet.uav[43] utilizationEnergyOverdrawMission 0
scalar OsgEarthNet.uav[43] utilizationEnergyOverdrawMaintenance 0
scalar OsgEarthNet.uav[43] utilizationCountMissions 49
scalar OsgEarthNet.uav[43] utilizationCountManeuversMission 856
scalar OsgEarthNet.uav[43] utilizationCountManeuversMaintenance 98
scalar OsgEarthNet.uav[43] utilizationCountChargeState 49
scalar OsgEarthNet.uav[43] utilizationCountOverdrawnAfterMission 0
scalar OsgEarthNet.uav[43] utilizationCountIdleState 49
scalar OsgEarthNet.uav[43] utilizationFail 0
scalar OsgEarthNet.uav[43] simulationTime 259200
scalar OsgEarthNet.uav[44] utilizationSecMission 24638.04056467
scalar OsgEarthNet.uav[44] utilizationSecMaintenance 22973.479436588
scalar OsgEarthNet.uav[44] utilizationSecCharge 172522.74387581
scalar OsgEarthNet.uav[44] utilizationSecIdle 39065.735122935
scalar OsgEarthNet.uav[44] utilizationEnergyMission 120941.50395966
scalar OsgEarthNet.uav[44] utilizationEnergyMaintenance 107762.99107742
scalar OsgEarthNet.uav[44] utilizationEnergyCharge 227422.3762207
scalar OsgEarthNet.uav[44] utilizationEnergyOverdrawMission 0
scalar OsgEarthNet.uav[44] utilizationEnergyOverdrawMaintenance 211.26983642578
scalar OsgEarthNet.uav[44] utilizationCountMissions 51
scalar OsgEarthNet.uav[44] utilizationCountManeuversMission 809
scalar OsgEarthNet.uav[44] utilizationCountManeuversMaintenance 102
scalar OsgEarthNet.uav[44] utilizationCountChargeState 51
scalar OsgEarthNet.uav[44] utilizationCountOverdrawnAfterMission 1
scalar OsgEarthNet.uav[44] utilizationCountIdleState 51
scalar OsgEarthNet.uav[44] utilizationFail 0
scalar OsgEarthNet.uav[44] simulationTime 259200
scalar OsgEarthNet.uav[45] utilizationSecMission 24836.857925563
scalar OsgEarthNet.uav[45] utilizationSecMaintenance 22313.714869075
scalar OsgEarthNet.uav[45] utilizationSecCharge 169573.97054874
scalar OsgEarthNet.uav[45] utilizationSecIdle 42475.45565662
scalar OsgEarthNet.uav[45] utilizationEnergyMission 122091.88459778
scalar OsgEarthNet.uav[45] utilizationEnergyMaintenance 103917.78830338
scalar OsgEarthNet.uav[45] utilizationEnergyCharge 222082.57202148
scalar OsgEarthNet.uav[45] utilizationEnergyOverdrawMission 0
scalar OsgEarthNet.uav[45] utilizationEnergyOverdrawMaintenance 0
scalar OsgEarthNet.uav[45] utilizationCountMissions 51
scalar OsgEarthNet.uav[45] utilizationCountManeuversMission 892
scalar OsgEarthNet.uav[45] utilizationCountManeuversMaintenance 102
scalar OsgEarthNet.uav[45] utilizationCountChargeState 51
scalar OsgEarthNet.uav[45] utilizationCountOverdrawnAfterMission 0
scalar OsgEarthNet.uav[45] utilizationCountIdleState 51
scalar OsgEarthNet.uav[45] utilizationFail 0
scalar OsgEarthNet.uav[45] simulationTime 259200
scalar OsgEarthNet.uav[46] utilizationSecMission 26559.00762431
scalar OsgEarthNet.uav[46] utilizationSecMaintenance 23948.730411054
scalar OsgEarthNet.uav[46] utilizationSecCharge 179820.26096464
scalar OsgEarthNet.uav[46] utilizationSecIdle 28872
scalar OsgEarthNet.uav[46] utilizationEnergyMission 127295.94293594
scalar OsgEarthNet.uav[46] utilizationEnergyMaintenance 112011.82040405
scalar OsgEarthNet.uav[46] utilizationEnergyCharge 237044.90258789
scalar OsgEarthNet.uav[46] utilizationEnergyOverdrawMission 0
scalar OsgEarthNet.uav[46] utilizationEnergyOverdrawMaintenance 95.4794921875
scalar OsgEarthNet.uav[46] utilizationCountMissions 53
scalar OsgEarthNet.uav[46] utilizationCountManeuversMission 743
scalar OsgEarthNet.uav[46] utilizationCountManeuversMaintenance 106
scalar OsgEarthNet.uav[46] utilizationCountChargeState 53
scalar OsgEarthNet.uav[46] utilizationCountOverdrawnAfterMission 1
scalar OsgEarthNet.uav[46] utilizationCountIdleState 52
scalar OsgEarthNet.uav[46] utilizationFail 0
scalar OsgEarthNet.uav[46] simulationTime 259200
scalar OsgEarthNet.uav[47] utilizationSecMission 23031.678791471
scalar OsgEarthNet.uav[47] utilizationSecMaintenance 19957.584308149
scalar OsgEarthNet.uav[47] utilizationSecCharge 154138.72590038
scalar OsgEarthNet.uav[47] utilizationSecIdle 62072.01
scalar OsgEarthNet.uav[47] utilizationEnergyMission 113109.40535736
scalar OsgEarthNet.uav[47] utilizationEnergyMaintenance 92600.379436493
scalar OsgEarthNet.uav[47] utilizationEnergyCharge 203378.58056641
scalar OsgEarthNet.uav[47] utilizationEnergyOverdrawMission 0
scalar OsgEarthNet.uav[47] utilizationEnergyOverdrawMaintenance 0
scalar OsgEarthNet.uav[47] utilizationCountMissions 46
scalar OsgEarthNet.uav[47] utilizationCountManeuversMission 806
scalar OsgEarthNet.uav[47] utilizationCountManeuversMaintenance 92
scalar OsgEarthNet.uav[47] utilizationCountChargeState 46
scalar OsgEarthNet.uav[47] utilizationCountOverdrawnAfterMission 0
scalar OsgEarthNet.uav[47] utilizationCountIdleState 45
scalar OsgEarthNet.uav[47] utilizationFail 0
scalar OsgEarthNet.uav[47] simulationTime 259200
scalar OsgEarthNet.uav[48] utilizationSecMission 21268.662005046
scalar OsgEarthNet.uav[48] utilizationSecMaintenance 17784.571367058
scalar OsgEarthNet.uav[48] utilizationSecCharge 138793.3045819
scalar OsgEarthNet.uav[48] utilizationSecIdle 81353.461045992
scalar OsgEarthNet.uav[48] utilizationEnergyMission 103281.91398621
scalar OsgEarthNet.uav[48] utilizationEnergyMaintenance 82034.217670441
scalar OsgEarthNet.uav[48] utilizationEnergyCharge 183186.43115234
scalar OsgEarthNet.uav[48] utilizationEnergyOverdrawMission 0
scalar OsgEarthNet.uav[48] utilizationEnergyOverdrawMaintenance 0
scalar OsgEarthNet.uav[48] utilizationCountMissions 41
scalar OsgEarthNet.uav[48] utilizationCountManeuversMission 593
scalar OsgEarthNet.uav[48] utilizationCountManeuversMaintenance 82
scalar OsgEarthNet.uav[48] utilizationCountChargeState 41
scalar OsgEarthNet.uav[48] utilizationCountOverdrawnAfterMission 0
scalar OsgEarthNet.uav[48] utilizationCountIdleState 41
scalar OsgEarthNet.uav[48] utilizationFail 0
scalar OsgEarthNet.uav[48] simulationTime 259200
scalar OsgEarthNet.uav[49] utilizationSecMission 25948.319397188
scalar OsgEarthNet.uav[49] utilizationSecMaintenance 23928.021303201
scalar OsgEarthNet.uav[49] utilizationSecCharge 179071.65029961
scalar OsgEarthNet.uav[49] utilizationSecIdle 30252.008
scalar OsgEarthNet.uav[49] utilizationEnergyMission 125962.84877777
scalar OsgEarthNet.uav[49] utilizationEnergyMaintenance 111588.56561661
scalar OsgEarthNet.uav[49] utilizationEnergyCharge 235145.21142578
scalar OsgEarthNet.uav[49] utilizationEnergyOverdrawMission 0
scalar OsgEarthNet.uav[49] utilizationEnergyOverdrawMaintenance 179.6316986084
scalar OsgEarthNet.uav[49] utilizationCountMissions 53
scalar OsgEarthNet.uav[49] utilizationCountManeuversMission 837
scalar OsgEarthNet.uav[49] utilizationCountManeuversMaintenance 106
scalar OsgEarthNet.uav[49] utilizationCountChargeState 53
scalar OsgEarthNet.uav[49] utilizationCountOverdrawnAfterMission 1
scalar OsgEarthNet.uav[49] utilizationCountIdleState 52
scalar OsgEarthNet.uav[49] utilizationFail 0
scalar OsgEarthNet.uav[49] simulationTime 259200
scalar OsgEarthNet.uav[50] utilizationSecMission 26603.094373053
scalar OsgEarthNet.uav[50] utilizationSecMaintenance 23467.590553376
scalar OsgEarthNet.uav[50] utilizationSecCharge 182330
scalar OsgEarthNet.uav[50] utilizationSecIdle 26799.314073571
scalar OsgEarthNet.uav[50] utilizationEnergyMission 127956.43881989
scalar OsgEarthNet.uav[50] utilizationEnergyMaintenance 109915.28534317
scalar OsgEarthNet.uav[50] utilizationEnergyCharge 237923.06933594
scalar OsgEarthNet.uav[50] utilizationEnergyOverdrawMission 0
scalar OsgEarthNet.uav[50] utilizationEnergyOverdrawMaintenance 0
scalar OsgEarthNet.uav[50] utilizationCountMissions 54
scalar OsgEarthNet.uav[50] utilizationCountManeuversMission 892
scalar OsgEarthNet.uav[50] utilizationCountManeuversMaintenance 108
scalar OsgEarthNet.uav[50] utilizationCountChargeState 54
scalar OsgEarthNet.uav[50] utilizationCountOverdrawnAfterMission 0
scalar OsgEarthNet.uav[50] utilizationCountIdleState 55
scalar OsgEarthNet.uav[50] utilizationFail 0
scalar OsgEarthNet.uav[50] simulationTime 259200
scalar OsgEarthNet.uav[51] utilizationSecMission 27783.773839362
scalar OsgEarthNet.uav[51] utilizationSecMaintenance 24724.225160638
scalar OsgEarthNet.uav[51] utilizationSecCharge 186400
scalar OsgEarthNet.uav[51] utilizationSecIdle 20292
scalar OsgEarthNet.uav[51] utilizationEnergyMission 132798.63288879
scalar OsgEarthNet.uav[51] utilizationEnergyMaintenance 113710.0953551
scalar OsgEarthNet.uav[51] utilizationEnergyCharge 243618.40576172
scalar OsgEarthNet.uav[51] utilizationEnergyOverdrawMission 0
scalar OsgEarthNet.uav[51] utilizationEnergyOverdrawMaintenance 0
scalar OsgEarthNet.uav[51] utilizationCountMissions 56
scalar OsgEarthNet.uav[51] utilizationCountManeuversMission 831
scalar OsgEarthNet.uav[51] utilizationCountManeuversMaintenance 111
scalar OsgEarthNet.uav[51] utilizationCountChargeState 55
scalar OsgEarthNet.uav[51] utilizationCountOverdrawnAfterMission 0
scalar OsgEarthNet.uav[51] utilizationCountIdleState 56
scalar OsgEarthNet.uav[51] utilizationFail 0
scalar OsgEarthNet.uav[51] simulationTime 259200
scalar OsgEarthNet.uav[52] utilizationSecMission 16348.304433616
scalar OsgEarthNet.uav[52] utilizationSecMaintenance 13793.152624904
scalar OsgEarthNet.uav[52] utilizationSecCharge 105609.32232756
scalar OsgEarthNet.uav[52] utilizationSecIdle 123449.21961392
scalar OsgEarthNet.uav[52] utilizationEnergyMission 77944.522438049
scalar OsgEarthNet.uav[52] utilizationEnergyMaintenance 64101.443195343
scalar OsgEarthNet.uav[52] utilizationEnergyCharge 138667.8067627
scalar OsgEarthNet.uav[52] utilizationEnergyOverdrawMission 0
scalar OsgEarthNet.uav[52] utilizationEnergyOverdrawMaintenance 0
scalar OsgEarthNet.uav[52] utilizationCountMissions 32
scalar OsgEarthNet.uav[52] utilizationCountManeuversMission 471
scalar OsgEarthNet.uav[52] utilizationCountManeuversMaintenance 64
scalar OsgEarthNet.uav[52] utilizationCountChargeState 32
scalar OsgEarthNet.uav[52] utilizationCountOverdrawnAfterMission 0
scalar OsgEarthNet.uav[52] utilizationCountIdleState 31
scalar OsgEarthNet.uav[52] utilizationFail 0
scalar OsgEarthNet.uav[52] simulationTime 259200
scalar OsgEarthNet.uav[53] utilizationSecMission 19524.14512466
scalar OsgEarthNet.uav[53] utilizationSecMaintenance 16934.636749132
scalar OsgEarthNet.uav[53] utilizationSecCharge 130306.54576387
scalar OsgEarthNet.uav[53] utilizationSecIdle 92434.671362338
scalar OsgEarthNet.uav[53] utilizationEnergyMission 94520.600795746
scalar OsgEarthNet.uav[53] utilizationEnergyMaintenance 78503.408527374
scalar OsgEarthNet.uav[53] utilizationEnergyCharge 171747.56005859
scalar OsgEarthNet.uav[53] utilizationEnergyOverdrawMission 0
scalar OsgEarthNet.uav[53] utilizationEnergyOverdrawMaintenance 106.1830368042
scalar OsgEarthNet.uav[53] utilizationCountMissions 38
scalar OsgEarthNet.uav[53] utilizationCountManeuversMission 573
scalar OsgEarthNet.uav[53] utilizationCountManeuversMaintenance 76
scalar OsgEarthNet.uav[53] utilizationCountChargeState 38
scalar OsgEarthNet.uav[53] utilizationCountOverdrawnAfterMission 1
scalar OsgEarthNet.uav[53] utilizationCountIdleState 38
scalar OsgEarthNet.uav[53] utilizationFail 0
scalar OsgEarthNet.uav[53] simulationTime 259200
scalar OsgEarthNet.uav[54] utilizationSecMission 13510.463805517
scalar OsgEarthNet.uav[54] utilizationSecMaintenance 12895.789552392
scalar OsgEarthNet.uav[54] utilizationSecCharge 94030
scalar OsgEarthNet.uav[54] utilizationSecIdle 138763.74564209
scalar OsgEarthNet.uav[54] utilizationEnergyMission 64998.201480865
scalar OsgEarthNet.uav[54] utilizationEnergyMaintenance 59473.323833466
scalar OsgEarthNet.uav[54] utilizationEnergyCharge 123372.70996094
scalar OsgEarthNet.uav[54] utilizationEnergyOverdrawMission 0
scalar OsgEarthNet.uav[54] utilizationEnergyOverdrawMaintenance 0
scalar OsgEarthNet.uav[54] utilizationCountMissions 28
scalar OsgEarthNet.uav[54] utilizationCountManeuversMission 361
scalar OsgEarthNet.uav[54] utilizationCountManeuversMaintenance 56
scalar OsgEarthNet.uav[54] utilizationCountChargeState 28
scalar OsgEarthNet.uav[54] utilizationCountOverdrawnAfterMission 0
scalar OsgEarthNet.uav[54] utilizationCountIdleState 26
scalar OsgEarthNet.uav[54] utilizationFail 0
scalar OsgEarthNet.uav[54] simulationTime 259200
scalar OsgEarthNet.uav[55] utilizationSecMission 22606.450848647
scalar OsgEarthNet.uav[55] utilizationSecMaintenance 20308.452275242
scalar OsgEarthNet.uav[55] utilizationSecCharge 150985.67052882
scalar OsgEarthNet.uav[55] utilizationSecIdle 65299.42534729
scalar OsgEarthNet.uav[55] utilizationEnergyMission 109543.32813263
scalar OsgEarthNet.uav[55] utilizationEnergyMaintenance 94062.38766861
scalar OsgEarthNet.uav[55] utilizationEnergyCharge 199275.28076172
scalar OsgEarthNet.uav[55] utilizationEnergyOverdrawMission 0
scalar OsgEarthNet.uav[55] utilizationEnergyOverdrawMaintenance 397.07015991211
scalar OsgEarthNet.uav[55] utilizationCountMissions 45
scalar OsgEarthNet.uav[55] utilizationCountManeuversMission 663
scalar OsgEarthNet.uav[55] utilizationCountManeuversMaintenance 90
scalar OsgEarthNet.uav[55] utilizationCountChargeState 45
scalar OsgEarthNet.uav[55] utilizationCountOverdrawnAfterMission 1
scalar OsgEarthNet.uav[55] utilizationCountIdleState 41
scalar OsgEarthNet.uav[55] utilizationFail 0
scalar OsgEarthNet.uav[55] simulationTime 259200
scalar OsgEarthNet.uav[56] utilizationSecMission 23801.715114779
scalar OsgEarthNet.uav[56] utilizationSecMaintenance 20060.768073578
scalar OsgEarthNet.uav[56] utilizationSecCharge 156918.91518527
scalar OsgEarthNet.uav[56] utilizationSecIdle 58418.600626371
scalar OsgEarthNet.uav[56] utilizationEnergyMission 115293.528965
scalar OsgEarthNet.uav[56] utilizationEnergyMaintenance 93881.945037842
scalar OsgEarthNet.uav[56] utilizationEnergyCharge 207279.828125
scalar OsgEarthNet.uav[56] utilizationEnergyOverdrawMission 0
scalar OsgEarthNet.uav[56] utilizationEnergyOverdrawMaintenance 0
scalar OsgEarthNet.uav[56] utilizationCountMissions 46
scalar OsgEarthNet.uav[56] utilizationCountManeuversMission 679
scalar OsgEarthNet.uav[56] utilizationCountManeuversMaintenance 92
scalar OsgEarthNet.uav[56] utilizationCountChargeState 46
scalar OsgEarthNet.uav[56] utilizationCountOverdrawnAfterMission 0
scalar OsgEarthNet.uav[56] utilizationCountIdleState 44
scalar OsgEarthNet.uav[56] utilizationFail 0
scalar OsgEarthNet.uav[56] simulationTime 259200
scalar OsgEarthNet.uav[57] utilizationSecMission 19708.536208161
scalar OsgEarthNet.uav[57] utilizationSecMaintenance 18218.614924274
scalar OsgEarthNet.uav[57] utilizationSecCharge 138420
scalar OsgEarthNet.uav[57] utilizationSecIdle 82852.847867565
scalar OsgEarthNet.uav[57] utilizationEnergyMission 95365.642028809
scalar OsgEarthNet.uav[57] utilizationEnergyMaintenance 86040.296363831
scalar OsgEarthNet.uav[57] utilizationEnergyCharge 182053.93432617
scalar OsgEarthNet.uav[57] utilizationEnergyOverdrawMission 0
scalar OsgEarthNet.uav[57] utilizationEnergyOverdrawMaintenance 0
scalar OsgEarthNet.uav[57] utilizationCountMissions 41
scalar OsgEarthNet.uav[57] utilizationCountManeuversMission 657
scalar OsgEarthNet.uav[57] utilizationCountManeuversMaintenance 82
scalar OsgEarthNet.uav[57] utilizationCountChargeState 41
scalar OsgEarthNet.uav[57] utilizationCountOverdrawnAfterMission 0
scalar OsgEarthNet.uav[57] utilizationCountIdleState 36
scalar OsgEarthNet.uav[57] utilizationFail 0
scalar OsgEarthNet.uav[57] simulationTime 259200
scalar OsgEarthNet.uav[58] utilizationSecMission 22994.548021903
scalar OsgEarthNet.uav[58] utilizationSecMaintenance 20939.100759479
scalar OsgEarthNet.uav[58] utilizationSecCharge 158300
scalar OsgEarthNet.uav[58] utilizationSecIdle 56966.350218618
scalar OsgEarthNet.uav[58] utilizationEnergyMission 113231.18987101
scalar OsgEarthNet.uav[58] utilizationEnergyMaintenance 97655.128700256
scalar OsgEarthNet.uav[58] utilizationEnergyCharge 208952.97338867
scalar OsgEarthNet.uav[58] utilizationEnergyOverdrawMission 0
scalar OsgEarthNet.uav[58] utilizationEnergyOverdrawMaintenance 339.01327514648
scalar OsgEarthNet.uav[58] utilizationCountMissions 46
scalar OsgEarthNet.uav[58] utilizationCountManeuversMission 681
scalar OsgEarthNet.uav[58] utilizationCountManeuversMaintenance 93
scalar OsgEarthNet.uav[58] utilizationCountChargeState 46
scalar OsgEarthNet.uav[58] utilizationCountOverdrawnAfterMission 1
scalar OsgEarthNet.uav[58] utilizationCountIdleState 41
scalar OsgEarthNet.uav[58] utilizationFail 0
scalar OsgEarthNet.uav[58] simulationTime 259200
scalar OsgEarthNet.uav[59] utilizationSecMission 26950.512111922
scalar OsgEarthNet.uav[59] utilizationSecMaintenance 23207.479888078
scalar OsgEarthNet.uav[59] utilizationSecCharge 180350
scalar OsgEarthNet.uav[59] utilizationSecIdle 28692.007
scalar OsgEarthNet.uav[59] utilizationEnergyMission 130336.48686301
scalar OsgEarthNet.uav[59] utilizationEnergyMaintenance 108088.96636581
scalar OsgEarthNet.uav[59] utilizationEnergyCharge 236795.57446289
scalar OsgEarthNet.uav[59] utilizationEnergyOverdrawMission 0
scalar OsgEarthNet.uav[59] utilizationEnergyOverdrawMaintenance 0
scalar OsgEarthNet.uav[59] utilizationCountMissions 53
scalar OsgEarthNet.uav[59] utilizationCountManeuversMission 845
scalar OsgEarthNet.uav[59] utilizationCountManeuversMaintenance 107
scalar OsgEarthNet.uav[59] utilizationCountChargeState 53
scalar OsgEarthNet.uav[59] utilizationCountOverdrawnAfterMission 0
scalar OsgEarthNet.uav[59] utilizationCountIdleState 51
scalar OsgEarthNet.uav[59] utilizationFail 0
scalar OsgEarthNet.uav[59] simulationTime 259200
scalar OsgEarthNet.uav[60] utilizationSecMission 23650.330892252
scalar OsgEarthNet.uav[60] utilizationSecMaintenance 21249.5764457
scalar OsgEarthNet.uav[60] utilizationSecCharge 159278.08866205
scalar OsgEarthNet.uav[60] utilizationSecIdle 55022.003
scalar OsgEarthNet.uav[60] utilizationEnergyMission 115860.52413177
scalar OsgEarthNet.uav[60] utilizationEnergyMaintenance 99138.801425934
scalar OsgEarthNet.uav[60] utilizationEnergyCharge 209145.56964111
scalar OsgEarthNet.uav[60] utilizationEnergyOverdrawMission 0
scalar OsgEarthNet.uav[60] utilizationEnergyOverdrawMaintenance 0
scalar OsgEarthNet.uav[60] utilizationCountMissions 48
scalar OsgEarthNet.uav[60] utilizationCountManeuversMission 762
scalar OsgEarthNet.uav[60] utilizationCountManeuversMaintenance 96
scalar OsgEarthNet.uav[60] utilizationCountChargeState 48
scalar OsgEarthNet.uav[60] utilizationCountOverdrawnAfterMission 0
scalar OsgEarthNet.uav[60] utilizationCountIdleState 43
scalar OsgEarthNet.uav[60] utilizationFail 0
scalar OsgEarthNet.uav[60] simulationTime 259200
scalar OsgEarthNet.uav[61] utilizationSecMission 24700.536392456
scalar OsgEarthNet.uav[61] utilizationSecMaintenance 22616.560497269
scalar OsgEarthNet.uav[61] utilizationSecCharge 167750.89711028
scalar OsgEarthNet.uav[61] utilizationSecIdle 44132.005
scalar OsgEarthNet.uav[61] utilizationEnergyMission 118907.68106461
scalar OsgEarthNet.uav[61] utilizationEnergyMaintenance 104344.14528275
scalar OsgEarthNet.uav[61] utilizationEnergyCharge 222457.22509766
scalar OsgEarthNet.uav[61] utilizationEnergyOverdrawMission 0
scalar OsgEarthNet.uav[61] utilizationEnergyOverdrawMaintenance 0
scalar OsgEarthNet.uav[61] utilizationCountMissions 50
scalar OsgEarthNet.uav[61] utilizationCountManeuversMission 698
scalar OsgEarthNet.uav[61] utilizationCountManeuversMaintenance 100
scalar OsgEarthNet.uav[61] utilizationCountChargeState 50
scalar OsgEarthNet.uav[61] utilizationCountOverdrawnAfterMission 0
scalar OsgEarthNet.uav[61] utilizationCountIdleState 40
scalar OsgEarthNet.uav[61] utilizationFail 0
scalar OsgEarthNet.uav[61] simulationTime 259200
scalar OsgEarthNet.uav[62] utilizationSecMission 22803.759491744
scalar OsgEarthNet.uav[62] utilizationSecMaintenance 25881.82250419
scalar OsgEarthNet.uav[62] utilizationSecCharge 171649.91906289
scalar OsgEarthNet.uav[62] utilizationSecIdle 38864.497941176
scalar OsgEarthNet.uav[62] utilizationEnergyMission 110857.95290375
scalar OsgEarthNet.uav[62] utilizationEnergyMaintenance 120099.46141815
scalar OsgEarthNet.uav[62] utilizationEnergyCharge 226992.82275391
scalar OsgEarthNet.uav[62] utilizationEnergyOverdrawMission 0
scalar OsgEarthNet.uav[62] utilizationEnergyOverdrawMaintenance 0
scalar OsgEarthNet.uav[62] utilizationCountMissions 51
scalar OsgEarthNet.uav[62] utilizationCountManeuversMission 689
scalar OsgEarthNet.uav[62] utilizationCountManeuversMaintenance 102
scalar OsgEarthNet.uav[62] utilizationCountChargeState 51
scalar OsgEarthNet.uav[62] utilizationCountOverdrawnAfterMission 0
scalar OsgEarthNet.uav[62] utilizationCountIdleState 42
scalar OsgEarthNet.uav[62] utilizationFail 0
scalar OsgEarthNet.uav[62] simulationTime 259200
scalar OsgEarthNet.uav[63] utilizationSecMission 24683.556621854
scalar OsgEarthNet.uav[63] utilizationSecMaintenance 23839.964768656
scalar OsgEarthNet.uav[63] utilizationSecCharge 173474.46660949
scalar OsgEarthNet.uav[63] utilizationSecIdle 37202.011
scalar OsgEarthNet.uav[63] utilizationEnergyMission 118922.11944199
scalar OsgEarthNet.uav[63] utilizationEnergyMaintenance 110809.9526825
scalar OsgEarthNet.uav[63] utilizationEnergyCharge 229557.27514648
scalar OsgEarthNet.uav[63] utilizationEnergyOverdrawMission 0
scalar OsgEarthNet.uav[63] utilizationEnergyOverdrawMaintenance 258.21887207031
scalar OsgEarthNet.uav[63] utilizationCountMissions 52
scalar OsgEarthNet.uav[63] utilizationCountManeuversMission 783
scalar OsgEarthNet.uav[63] utilizationCountManeuversMaintenance 104
scalar OsgEarthNet.uav[63] utilizationCountChargeState 52
scalar OsgEarthNet.uav[63] utilizationCountOverdrawnAfterMission 1
scalar OsgEarthNet.uav[63] utilizationCountIdleState 40
scalar OsgEarthNet.uav[63] utilizationFail 0
scalar OsgEarthNet.uav[63] simulationTime 259200
scalar OsgEarthNet.uav[64] utilizationSecMission 25955.106143278
scalar OsgEarthNet.uav[64] utilizationSecMaintenance 23538.82391408
scalar OsgEarthNet.uav[64] utilizationSecCharge 175304.06843526
scalar OsgEarthNet.uav[64] utilizationSecIdle 34402.000507383
scalar OsgEarthNet.uav[64] utilizationEnergyMission 126030.31471252
scalar OsgEarthNet.uav[64] utilizationEnergyMaintenance 109222.3715744
scalar OsgEarthNet.uav[64] utilizationEnergyCharge 232524.58886719
scalar OsgEarthNet.uav[64] utilizationEnergyOverdrawMission 0
scalar OsgEarthNet.uav[64] utilizationEnergyOverdrawMaintenance 0
scalar OsgEarthNet.uav[64] utilizationCountMissions 53
scalar OsgEarthNet.uav[64] utilizationCountManeuversMission 792
scalar OsgEarthNet.uav[64] utilizationCountManeuversMaintenance 106
scalar OsgEarthNet.uav[64] utilizationCountChargeState 53
scalar OsgEarthNet.uav[64] utilizationCountOverdrawnAfterMission 0
scalar OsgEarthNet.uav[64] utilizationCountIdleState 43
scalar OsgEarthNet.uav[64] utilizationFail 0
scalar OsgEarthNet.uav[64] simulationTime 259200
scalar OsgEarthNet.uav[65] utilizationSecMission 25334.232441347
scalar OsgEarthNet.uav[65] utilizationSecMaintenance 24719.653083065
scalar OsgEarthNet.uav[65] utilizationSecCharge 180364.10747559
scalar OsgEarthNet.uav[65] utilizationSecIdle 28782.006
scalar OsgEarthNet.uav[65] utilizationEnergyMission 123231.06821442
scalar OsgEarthNet.uav[65] utilizationEnergyMaintenance 114381.95755386
scalar OsgEarthNet.uav[65] utilizationEnergyCharge 238377.67553711
scalar OsgEarthNet.uav[65] utilizationEnergyOverdrawMission 0
scalar OsgEarthNet.uav[65] utilizationEnergyOverdrawMaintenance 0
[...]
scalar OsgEarthNet.uav[81] utilizationCountMissions 60
scalar OsgEarthNet.uav[81] utilizationCountManeuversMission 844
scalar OsgEarthNet.uav[81] utilizationCountManeuversMaintenance 120
scalar OsgEarthNet.uav[81] utilizationCountChargeState 60
scalar OsgEarthNet.uav[81] utilizationCountOverdrawnAfterMission 0
scalar OsgEarthNet.uav[81] utilizationCountIdleState 22
scalar OsgEarthNet.uav[81] utilizationFail 0
scalar OsgEarthNet.uav[81] simulationTime 259200
scalar OsgEarthNet.uav[82] utilizationSecMission 27832.211790885
scalar OsgEarthNet.uav[82] utilizationSecMaintenance 27691.836374729
scalar OsgEarthNet.uav[82] utilizationSecCharge 192843.94983439
scalar OsgEarthNet.uav[82] utilizationSecIdle 10832.001
scalar OsgEarthNet.uav[82] utilizationEnergyMission 134788.71337509
scalar OsgEarthNet.uav[82] utilizationEnergyMaintenance 127453.73591232
scalar OsgEarthNet.uav[82] utilizationEnergyCharge 260422.12133789
scalar OsgEarthNet.uav[82] utilizationEnergyOverdrawMission 0
scalar OsgEarthNet.uav[82] utilizationEnergyOverdrawMaintenance 299.5510559082
scalar OsgEarthNet.uav[82] utilizationCountMissions 58
scalar OsgEarthNet.uav[82] utilizationCountManeuversMission 801
scalar OsgEarthNet.uav[82] utilizationCountManeuversMaintenance 116
scalar OsgEarthNet.uav[82] utilizationCountChargeState 58
scalar OsgEarthNet.uav[82] utilizationCountOverdrawnAfterMission 1
scalar OsgEarthNet.uav[82] utilizationCountIdleState 31
scalar OsgEarthNet.uav[82] utilizationFail 0
scalar OsgEarthNet.uav[82] simulationTime 259200
scalar OsgEarthNet.uav[83] utilizationSecMission 27383.749304978
scalar OsgEarthNet.uav[83] utilizationSecMaintenance 27044.235695022
scalar OsgEarthNet.uav[83] utilizationSecCharge 189350
scalar OsgEarthNet.uav[83] utilizationSecIdle 15422.014
scalar OsgEarthNet.uav[83] utilizationEnergyMission 134138.13637543
scalar OsgEarthNet.uav[83] utilizationEnergyMaintenance 124726.92767415
scalar OsgEarthNet.uav[83] utilizationEnergyCharge 254386.14257812
scalar OsgEarthNet.uav[83] utilizationEnergyOverdrawMission 0
scalar OsgEarthNet.uav[83] utilizationEnergyOverdrawMaintenance 0
scalar OsgEarthNet.uav[83] utilizationCountMissions 58
scalar OsgEarthNet.uav[83] utilizationCountManeuversMission 862
scalar OsgEarthNet.uav[83] utilizationCountManeuversMaintenance 116
scalar OsgEarthNet.uav[83] utilizationCountChargeState 57
scalar OsgEarthNet.uav[83] utilizationCountOverdrawnAfterMission 0
scalar OsgEarthNet.uav[83] utilizationCountIdleState 33
scalar OsgEarthNet.uav[83] utilizationFail 0
scalar OsgEarthNet.uav[83] simulationTime 259200
scalar OsgEarthNet.uav[84] utilizationSecMission 27206.063886496
scalar OsgEarthNet.uav[84] utilizationSecMaintenance 27600.899284853
scalar OsgEarthNet.uav[84] utilizationSecCharge 194412.82203973
scalar OsgEarthNet.uav[84] utilizationSecIdle 9980.2137889263
scalar OsgEarthNet.uav[84] utilizationEnergyMission 134514.6856308
scalar OsgEarthNet.uav[84] utilizationEnergyMaintenance 128757.68844223
scalar OsgEarthNet.uav[84] utilizationEnergyCharge 262576.73388672
scalar OsgEarthNet.uav[84] utilizationEnergyOverdrawMission 0
scalar OsgEarthNet.uav[84] utilizationEnergyOverdrawMaintenance 0
scalar OsgEarthNet.uav[84] utilizationCountMissions 59
scalar OsgEarthNet.uav[84] utilizationCountManeuversMission 953
scalar OsgEarthNet.uav[84] utilizationCountManeuversMaintenance 118
scalar OsgEarthNet.uav[84] utilizationCountChargeState 59
scalar OsgEarthNet.uav[84] utilizationCountOverdrawnAfterMission 0
scalar OsgEarthNet.uav[84] utilizationCountIdleState 23
scalar OsgEarthNet.uav[84] utilizationFail 0
scalar OsgEarthNet.uav[84] simulationTime 259200
scalar OsgEarthNet.uav[85] utilizationSecMission 28544.686389682
scalar OsgEarthNet.uav[85] utilizationSecMaintenance 27782.19432971
scalar OsgEarthNet.uav[85] utilizationSecCharge 195063.48719994
scalar OsgEarthNet.uav[85] utilizationSecIdle 7809.6310806652
scalar OsgEarthNet.uav[85] utilizationEnergyMission 135741.11576462
scalar OsgEarthNet.uav[85] utilizationEnergyMaintenance 128208.69658661
scalar OsgEarthNet.uav[85] utilizationEnergyCharge 261884.90576172
scalar OsgEarthNet.uav[85] utilizationEnergyOverdrawMission 0
scalar OsgEarthNet.uav[85] utilizationEnergyOverdrawMaintenance 0
scalar OsgEarthNet.uav[85] utilizationCountMissions 59
scalar OsgEarthNet.uav[85] utilizationCountManeuversMission 805
scalar OsgEarthNet.uav[85] utilizationCountManeuversMaintenance 118
scalar OsgEarthNet.uav[85] utilizationCountChargeState 59
scalar OsgEarthNet.uav[85] utilizationCountOverdrawnAfterMission 0
scalar OsgEarthNet.uav[85] utilizationCountIdleState 26
scalar OsgEarthNet.uav[85] utilizationFail 0
scalar OsgEarthNet.uav[85] simulationTime 259200
scalar OsgEarthNet.uav[86] utilizationSecMission 29064.869108794
scalar OsgEarthNet.uav[86] utilizationSecMaintenance 25792.055855499
scalar OsgEarthNet.uav[86] utilizationSecCharge 190410
scalar OsgEarthNet.uav[86] utilizationSecIdle 13933.074035707
scalar OsgEarthNet.uav[86] utilizationEnergyMission 140310.94457626
scalar OsgEarthNet.uav[86] utilizationEnergyMaintenance 120352.01407609
scalar OsgEarthNet.uav[86] utilizationEnergyCharge 255794.75561523
scalar OsgEarthNet.uav[86] utilizationEnergyOverdrawMission 0
scalar OsgEarthNet.uav[86] utilizationEnergyOverdrawMaintenance 0
scalar OsgEarthNet.uav[86] utilizationCountMissions 58
scalar OsgEarthNet.uav[86] utilizationCountManeuversMission 777
scalar OsgEarthNet.uav[86] utilizationCountManeuversMaintenance 116
scalar OsgEarthNet.uav[86] utilizationCountChargeState 57
scalar OsgEarthNet.uav[86] utilizationCountOverdrawnAfterMission 0
scalar OsgEarthNet.uav[86] utilizationCountIdleState 32
scalar OsgEarthNet.uav[86] utilizationFail 0
scalar OsgEarthNet.uav[86] simulationTime 259200
scalar OsgEarthNet.uav[87] utilizationSecMission 27482.570620589
scalar OsgEarthNet.uav[87] utilizationSecMaintenance 27532.699798295
scalar OsgEarthNet.uav[87] utilizationSecCharge 195472.72658112
scalar OsgEarthNet.uav[87] utilizationSecIdle 8712.002
scalar OsgEarthNet.uav[87] utilizationEnergyMission 135313.3148613
scalar OsgEarthNet.uav[87] utilizationEnergyMaintenance 128388.25236511
scalar OsgEarthNet.uav[87] utilizationEnergyCharge 262351.6340332
scalar OsgEarthNet.uav[87] utilizationEnergyOverdrawMission 0
scalar OsgEarthNet.uav[87] utilizationEnergyOverdrawMaintenance 0
scalar OsgEarthNet.uav[87] utilizationCountMissions 60
scalar OsgEarthNet.uav[87] utilizationCountManeuversMission 1008
scalar OsgEarthNet.uav[87] utilizationCountManeuversMaintenance 120
scalar OsgEarthNet.uav[87] utilizationCountChargeState 60
scalar OsgEarthNet.uav[87] utilizationCountOverdrawnAfterMission 0
scalar OsgEarthNet.uav[87] utilizationCountIdleState 28
scalar OsgEarthNet.uav[87] utilizationFail 0
scalar OsgEarthNet.uav[87] simulationTime 259200
scalar OsgEarthNet.uav[88] utilizationSecMission 28873.770489402
scalar OsgEarthNet.uav[88] utilizationSecMaintenance 27910.877573441
scalar OsgEarthNet.uav[88] utilizationSecCharge 197913.35093716
scalar OsgEarthNet.uav[88] utilizationSecIdle 4502
scalar OsgEarthNet.uav[88] utilizationEnergyMission 140946.86725616
scalar OsgEarthNet.uav[88] utilizationEnergyMaintenance 129576.06545258
scalar OsgEarthNet.uav[88] utilizationEnergyCharge 269465.78027344
scalar OsgEarthNet.uav[88] utilizationEnergyOverdrawMission 0
scalar OsgEarthNet.uav[88] utilizationEnergyOverdrawMaintenance 0
scalar OsgEarthNet.uav[88] utilizationCountMissions 61
scalar OsgEarthNet.uav[88] utilizationCountManeuversMission 990
scalar OsgEarthNet.uav[88] utilizationCountManeuversMaintenance 122
scalar OsgEarthNet.uav[88] utilizationCountChargeState 61
scalar OsgEarthNet.uav[88] utilizationCountOverdrawnAfterMission 0
scalar OsgEarthNet.uav[88] utilizationCountIdleState 23
scalar OsgEarthNet.uav[88] utilizationFail 0
scalar OsgEarthNet.uav[88] simulationTime 259200
scalar OsgEarthNet.uav[89] utilizationSecMission 29593.768459912
scalar OsgEarthNet.uav[89] utilizationSecMaintenance 26047.886037782
scalar OsgEarthNet.uav[89] utilizationSecCharge 192039.34831002
scalar OsgEarthNet.uav[89] utilizationSecIdle 11518.996192281
scalar OsgEarthNet.uav[89] utilizationEnergyMission 139747.46200943
scalar OsgEarthNet.uav[89] utilizationEnergyMaintenance 120192.83092499
scalar OsgEarthNet.uav[89] utilizationEnergyCharge 258930.12231445
scalar OsgEarthNet.uav[89] utilizationEnergyOverdrawMission 0
scalar OsgEarthNet.uav[89] utilizationEnergyOverdrawMaintenance 0
scalar OsgEarthNet.uav[89] utilizationCountMissions 59
scalar OsgEarthNet.uav[89] utilizationCountManeuversMission 864
scalar OsgEarthNet.uav[89] utilizationCountManeuversMaintenance 118
scalar OsgEarthNet.uav[89] utilizationCountChargeState 59
scalar OsgEarthNet.uav[89] utilizationCountOverdrawnAfterMission 0
scalar OsgEarthNet.uav[89] utilizationCountIdleState 28
scalar OsgEarthNet.uav[89] utilizationFail 0
scalar OsgEarthNet.uav[89] simulationTime 259200
scalar OsgEarthNet.uav[90] utilizationSecMission 27813.232378582
scalar OsgEarthNet.uav[90] utilizationSecMaintenance 28163.807329381
scalar OsgEarthNet.uav[90] utilizationSecCharge 196800.95329204
scalar OsgEarthNet.uav[90] utilizationSecIdle 6422.006
scalar OsgEarthNet.uav[90] utilizationEnergyMission 133886.16654205
scalar OsgEarthNet.uav[90] utilizationEnergyMaintenance 132389.26303482
scalar OsgEarthNet.uav[90] utilizationEnergyCharge 264984.4375
scalar OsgEarthNet.uav[90] utilizationEnergyOverdrawMission 0
scalar OsgEarthNet.uav[90] utilizationEnergyOverdrawMaintenance 0
scalar OsgEarthNet.uav[90] utilizationCountMissions 60
scalar OsgEarthNet.uav[90] utilizationCountManeuversMission 826
scalar OsgEarthNet.uav[90] utilizationCountManeuversMaintenance 120
scalar OsgEarthNet.uav[90] utilizationCountChargeState 60
scalar OsgEarthNet.uav[90] utilizationCountOverdrawnAfterMission 0
scalar OsgEarthNet.uav[90] utilizationCountIdleState 21
scalar OsgEarthNet.uav[90] utilizationFail 0
scalar OsgEarthNet.uav[90] simulationTime 259200
scalar OsgEarthNet.uav[91] utilizationSecMission 26817.440234365
scalar OsgEarthNet.uav[91] utilizationSecMaintenance 29437.469981651
scalar OsgEarthNet.uav[91] utilizationSecCharge 196603.08578398
scalar OsgEarthNet.uav[91] utilizationSecIdle 6342.003
scalar OsgEarthNet.uav[91] utilizationEnergyMission 130051.28843307
scalar OsgEarthNet.uav[91] utilizationEnergyMaintenance 136511.87528229
scalar OsgEarthNet.uav[91] utilizationEnergyCharge 265347.00708008
scalar OsgEarthNet.uav[91] utilizationEnergyOverdrawMission 0
scalar OsgEarthNet.uav[91] utilizationEnergyOverdrawMaintenance 0
scalar OsgEarthNet.uav[91] utilizationCountMissions 60
scalar OsgEarthNet.uav[91] utilizationCountManeuversMission 847
scalar OsgEarthNet.uav[91] utilizationCountManeuversMaintenance 120
scalar OsgEarthNet.uav[91] utilizationCountChargeState 60
scalar OsgEarthNet.uav[91] utilizationCountOverdrawnAfterMission 0
scalar OsgEarthNet.uav[91] utilizationCountIdleState 21
scalar OsgEarthNet.uav[91] utilizationFail 0
scalar OsgEarthNet.uav[91] simulationTime 259200
scalar OsgEarthNet.uav[92] utilizationSecMission 29737.8735497
scalar OsgEarthNet.uav[92] utilizationSecMaintenance 25715.026900491
scalar OsgEarthNet.uav[92] utilizationSecCharge 196015.09554981
scalar OsgEarthNet.uav[92] utilizationSecIdle 7732.003
scalar OsgEarthNet.uav[92] utilizationEnergyMission 143648.08888626
scalar OsgEarthNet.uav[92] utilizationEnergyMaintenance 121049.18627167
scalar OsgEarthNet.uav[92] utilizationEnergyCharge 265195.3503418
scalar OsgEarthNet.uav[92] utilizationEnergyOverdrawMission 0
scalar OsgEarthNet.uav[92] utilizationEnergyOverdrawMaintenance 0
scalar OsgEarthNet.uav[92] utilizationCountMissions 59
scalar OsgEarthNet.uav[92] utilizationCountManeuversMission 872
scalar OsgEarthNet.uav[92] utilizationCountManeuversMaintenance 118
scalar OsgEarthNet.uav[92] utilizationCountChargeState 59
scalar OsgEarthNet.uav[92] utilizationCountOverdrawnAfterMission 0
scalar OsgEarthNet.uav[92] utilizationCountIdleState 26
scalar OsgEarthNet.uav[92] utilizationFail 0
scalar OsgEarthNet.uav[92] simulationTime 259200
scalar OsgEarthNet.uav[93] utilizationSecMission 28791.235153657
scalar OsgEarthNet.uav[93] utilizationSecMaintenance 27074.324791229
scalar OsgEarthNet.uav[93] utilizationSecCharge 195213.24348504
scalar OsgEarthNet.uav[93] utilizationSecIdle 8121.1955700725
scalar OsgEarthNet.uav[93] utilizationEnergyMission 138846.48001862
scalar OsgEarthNet.uav[93] utilizationEnergyMaintenance 124378.89715576
scalar OsgEarthNet.uav[93] utilizationEnergyCharge 263139.49389648
scalar OsgEarthNet.uav[93] utilizationEnergyOverdrawMission 0
scalar OsgEarthNet.uav[93] utilizationEnergyOverdrawMaintenance 0
scalar OsgEarthNet.uav[93] utilizationCountMissions 60
scalar OsgEarthNet.uav[93] utilizationCountManeuversMission 967
scalar OsgEarthNet.uav[93] utilizationCountManeuversMaintenance 120
scalar OsgEarthNet.uav[93] utilizationCountChargeState 60
scalar OsgEarthNet.uav[93] utilizationCountOverdrawnAfterMission 0
scalar OsgEarthNet.uav[93] utilizationCountIdleState 21
scalar OsgEarthNet.uav[93] utilizationFail 0
scalar OsgEarthNet.uav[93] simulationTime 259200
scalar OsgEarthNet.uav[94] utilizationSecMission 28234.688425635
scalar OsgEarthNet.uav[94] utilizationSecMaintenance 27778.542479995
scalar OsgEarthNet.uav[94] utilizationSecCharge 195184.76009437
scalar OsgEarthNet.uav[94] utilizationSecIdle 8002.008
scalar OsgEarthNet.uav[94] utilizationEnergyMission 138242.75889969
scalar OsgEarthNet.uav[94] utilizationEnergyMaintenance 128565.27833939
scalar OsgEarthNet.uav[94] utilizationEnergyCharge 264352.8996582
scalar OsgEarthNet.uav[94] utilizationEnergyOverdrawMission 0
scalar OsgEarthNet.uav[94] utilizationEnergyOverdrawMaintenance 0
scalar OsgEarthNet.uav[94] utilizationCountMissions 60
scalar OsgEarthNet.uav[94] utilizationCountManeuversMission 949
scalar OsgEarthNet.uav[94] utilizationCountManeuversMaintenance 120
scalar OsgEarthNet.uav[94] utilizationCountChargeState 60
scalar OsgEarthNet.uav[94] utilizationCountOverdrawnAfterMission 0
scalar OsgEarthNet.uav[94] utilizationCountIdleState 23
scalar OsgEarthNet.uav[94] utilizationFail 0
scalar OsgEarthNet.uav[94] simulationTime 259200
scalar OsgEarthNet.uav[95] utilizationSecMission 28127.230511378
scalar OsgEarthNet.uav[95] utilizationSecMaintenance 28846.350338228
scalar OsgEarthNet.uav[95] utilizationSecCharge 196414.41615039
scalar OsgEarthNet.uav[95] utilizationSecIdle 5812.002
scalar OsgEarthNet.uav[95] utilizationEnergyMission 137818.51144409
scalar OsgEarthNet.uav[95] utilizationEnergyMaintenance 133253.8453598
scalar OsgEarthNet.uav[95] utilizationEnergyCharge 266574.06640625
scalar OsgEarthNet.uav[95] utilizationEnergyOverdrawMission 0
scalar OsgEarthNet.uav[95] utilizationEnergyOverdrawMaintenance 0
scalar OsgEarthNet.uav[95] utilizationCountMissions 61
scalar OsgEarthNet.uav[95] utilizationCountManeuversMission 975
scalar OsgEarthNet.uav[95] utilizationCountManeuversMaintenance 122
scalar OsgEarthNet.uav[95] utilizationCountChargeState 61
scalar OsgEarthNet.uav[95] utilizationCountOverdrawnAfterMission 0
scalar OsgEarthNet.uav[95] utilizationCountIdleState 19
scalar OsgEarthNet.uav[95] utilizationFail 0
scalar OsgEarthNet.uav[95] simulationTime 259200
scalar OsgEarthNet.uav[96] utilizationSecMission 29391.160617868
scalar OsgEarthNet.uav[96] utilizationSecMaintenance 26761.180352266
scalar OsgEarthNet.uav[96] utilizationSecCharge 193384.68937565
scalar OsgEarthNet.uav[96] utilizationSecIdle 9662.9686542184
scalar OsgEarthNet.uav[96] utilizationEnergyMission 140935.7936821
scalar OsgEarthNet.uav[96] utilizationEnergyMaintenance 124387.07928467
scalar OsgEarthNet.uav[96] utilizationEnergyCharge 261587.00311279
scalar OsgEarthNet.uav[96] utilizationEnergyOverdrawMission 0
scalar OsgEarthNet.uav[96] utilizationEnergyOverdrawMaintenance 0
scalar OsgEarthNet.uav[96] utilizationCountMissions 59
scalar OsgEarthNet.uav[96] utilizationCountManeuversMission 835
scalar OsgEarthNet.uav[96] utilizationCountManeuversMaintenance 118
scalar OsgEarthNet.uav[96] utilizationCountChargeState 59
scalar OsgEarthNet.uav[96] utilizationCountOverdrawnAfterMission 0
scalar OsgEarthNet.uav[96] utilizationCountIdleState 24
scalar OsgEarthNet.uav[96] utilizationFail 0
scalar OsgEarthNet.uav[96] simulationTime 259200
scalar OsgEarthNet.uav[97] utilizationSecMission 29617.98835033
scalar OsgEarthNet.uav[97] utilizationSecMaintenance 26802.08534526
scalar OsgEarthNet.uav[97] utilizationSecCharge 195815.2215788
scalar OsgEarthNet.uav[97] utilizationSecIdle 6964.703725612
scalar OsgEarthNet.uav[97] utilizationEnergyMission 141793.85159683
scalar OsgEarthNet.uav[97] utilizationEnergyMaintenance 123761.12243652
scalar OsgEarthNet.uav[97] utilizationEnergyCharge 265688.55932617
scalar OsgEarthNet.uav[97] utilizationEnergyOverdrawMission 0
scalar OsgEarthNet.uav[97] utilizationEnergyOverdrawMaintenance 151.55834960938
scalar OsgEarthNet.uav[97] utilizationCountMissions 59
scalar OsgEarthNet.uav[97] utilizationCountManeuversMission 821
scalar OsgEarthNet.uav[97] utilizationCountManeuversMaintenance 118
scalar OsgEarthNet.uav[97] utilizationCountChargeState 59
scalar OsgEarthNet.uav[97] utilizationCountOverdrawnAfterMission 1
scalar OsgEarthNet.uav[97] utilizationCountIdleState 26
scalar OsgEarthNet.uav[97] utilizationFail 0
scalar OsgEarthNet.uav[97] simulationTime 259200
scalar OsgEarthNet.uav[98] utilizationSecMission 31192.943945253
scalar OsgEarthNet.uav[98] utilizationSecMaintenance 25070.038294542
scalar OsgEarthNet.uav[98] utilizationSecCharge 195935.01676021
scalar OsgEarthNet.uav[98] utilizationSecIdle 7002
scalar OsgEarthNet.uav[98] utilizationEnergyMission 150948.01841635
scalar OsgEarthNet.uav[98] utilizationEnergyMaintenance 114777.56731033
scalar OsgEarthNet.uav[98] utilizationEnergyCharge 264112.92504883
scalar OsgEarthNet.uav[98] utilizationEnergyOverdrawMission 0
scalar OsgEarthNet.uav[98] utilizationEnergyOverdrawMaintenance 0
scalar OsgEarthNet.uav[98] utilizationCountMissions 60
scalar OsgEarthNet.uav[98] utilizationCountManeuversMission 892
scalar OsgEarthNet.uav[98] utilizationCountManeuversMaintenance 119
scalar OsgEarthNet.uav[98] utilizationCountChargeState 60
scalar OsgEarthNet.uav[98] utilizationCountOverdrawnAfterMission 0
scalar OsgEarthNet.uav[98] utilizationCountIdleState 25
scalar OsgEarthNet.uav[98] utilizationFail 0
scalar OsgEarthNet.uav[98] simulationTime 259200
scalar OsgEarthNet.uav[99] utilizationSecMission 28451.199401289
scalar OsgEarthNet.uav[99] utilizationSecMaintenance 28191.363657161
scalar OsgEarthNet.uav[99] utilizationSecCharge 198085.43594155
scalar OsgEarthNet.uav[99] utilizationSecIdle 4472
scalar OsgEarthNet.uav[99] utilizationEnergyMission 138039.64480591
scalar OsgEarthNet.uav[99] utilizationEnergyMaintenance 131284.52289963
scalar OsgEarthNet.uav[99] utilizationEnergyCharge 269878.95092773
scalar OsgEarthNet.uav[99] utilizationEnergyOverdrawMission 0
scalar OsgEarthNet.uav[99] utilizationEnergyOverdrawMaintenance 0
scalar OsgEarthNet.uav[99] utilizationCountMissions 61
scalar OsgEarthNet.uav[99] utilizationCountManeuversMission 872
scalar OsgEarthNet.uav[99] utilizationCountManeuversMaintenance 121
scalar OsgEarthNet.uav[99] utilizationCountChargeState 61
scalar OsgEarthNet.uav[99] utilizationCountOverdrawnAfterMission 0
scalar OsgEarthNet.uav[99] utilizationCountIdleState 18
scalar OsgEarthNet.uav[99] utilizationFail 0
scalar OsgEarthNet.uav[99] simulationTime 259200
scalar OsgEarthNet.cs[0] usedPower 5255120.2709083
scalar OsgEarthNet.cs[0] chargedPower 5255120.2709083
scalar OsgEarthNet.cs[0] chargedMobileNodes 887
scalar OsgEarthNet.cs[0] reservations 1201
scalar OsgEarthNet.cs[1] usedPower 5679517.8116638
scalar OsgEarthNet.cs[1] chargedPower 5679517.8116638
scalar OsgEarthNet.cs[1] chargedMobileNodes 950
scalar OsgEarthNet.cs[1] reservations 1259
scalar OsgEarthNet.cs[2] usedPower 9695782.2370375
scalar OsgEarthNet.cs[2] chargedPower 9695782.2370375
scalar OsgEarthNet.cs[2] chargedMobileNodes 1717
scalar OsgEarthNet.cs[2] reservations 2202

