version 2
run Szenario_Hotel_Gabelbach-29-20180707-22:01:32-11816
attr configname Szenario_Hotel_Gabelbach
attr datetime 20180707-22:01:32
attr experiment Szenario_Hotel_Gabelbach
attr inifile omnetpp.ini
attr iterationvars "$quant=0.75, $replM=0"
attr iterationvarsf quant=0.75,replM=0-
attr measurement "$quant=0.75, $replM=0"
attr network OsgEarthNet
attr processid 11816
attr repetition 5
attr replication #5
attr resultdir results
attr runnumber 29
attr seedset 29
itervar quant 0.75
itervar replM 0
param *.osgEarthScene.scene "\"Szenario_Hotel_Gabelbach.earth\""
param *.playgroundLatitude 50.6830269
param *.playgroundLongitude 10.8538055
param *.playgroundWidth 3500m
param *.playgroundHeight 3500m
param *.numCSs 3
param *.numUAVs 100
param *.cs[0].posX 3537m
param *.cs[0].posY 965m
param *.cs[0].posZ 538m
param *.cs[1].posX 312m
param *.cs[1].posY 1262m
param *.cs[1].posZ 539m
param *.cs[2].posX 2185m
param *.cs[2].posY 3026m
param *.cs[2].posZ 777m
param *.uav[*].predictionQuantile 0.75
param *.uav[*].replacementMethod 0
param *.*.timeStep 10s
param *.uav[*].commandPreviewCommandCount 20
param *.missionControl.missionFiles "\"missions\\\\Szenario_WB_Hotel_Gabelbach_Mission_Hotel.waypoints,missions\\\\Szenario_WB_Hotel_Gabelbach_Mission_Kickelhahn.waypoints,missions\\\\Szenario_WB_Hotel_Gabelbach_Mission_Ilmenau_Sportplatz.waypoints,missions\\\\Szenario_WB_Hotel_Gabelbach_Mission_Manebach_Mitte.waypoints,missions\\\\Szenario_WB_Hotel_Gabelbach_Mission_Manebach_Sued.waypoints,missions\\\\Szenario_WB_Hotel_Gabelbach_Hover_HoheSchlaufe.waypoints,missions\\\\Szenario_WB_Hotel_Gabelbach_Hover_Kickelhahn.waypoints,missions\\\\Szenario_WB_Hotel_Gabelbach_Hover_Gabelbachskopf.waypoints,missions\\\\Szenario_WB_Hotel_Gabelbach_Hover_Dachskopf.waypoints\""
param *.uav[0].startX 3537m
param *.uav[0].startY 965m
param *.uav[0].startZ 539m
param *.uav[1].startX 312m
param *.uav[1].startY 1262m
param *.uav[1].startZ 540m
param *.uav[2].startX 2185m
param *.uav[2].startY 3026m
param *.uav[2].startZ 778m
param *.uav[3].startX 3537m
param *.uav[3].startY 965m
param *.uav[3].startZ 539m
param *.uav[4].startX 312m
param *.uav[4].startY 1262m
param *.uav[4].startZ 540m
param *.uav[5].startX 2185m
param *.uav[5].startY 3026m
param *.uav[5].startZ 778m
param *.uav[6].startX 3537m
param *.uav[6].startY 965m
param *.uav[6].startZ 539m
param *.uav[7].startX 312m
param *.uav[7].startY 1262m
param *.uav[7].startZ 540m
param *.uav[8].startX 2185m
param *.uav[8].startY 3026m
param *.uav[8].startZ 778m
param *.uav[9].startX 3537m
param *.uav[9].startY 965m
param *.uav[9].startZ 539m
param *.uav[10].startX 3537m
param *.uav[10].startY 965m
param *.uav[10].startZ 539m
param *.uav[11].startX 312m
param *.uav[11].startY 1262m
param *.uav[11].startZ 540m
param *.uav[12].startX 2185m
param *.uav[12].startY 3026m
param *.uav[12].startZ 778m
param *.uav[13].startX 3537m
param *.uav[13].startY 965m
param *.uav[13].startZ 539m
param *.uav[14].startX 312m
param *.uav[14].startY 1262m
param *.uav[14].startZ 540m
param *.uav[15].startX 2185m
param *.uav[15].startY 3026m
param *.uav[15].startZ 778m
param *.uav[16].startX 3537m
param *.uav[16].startY 965m
param *.uav[16].startZ 539m
param *.uav[17].startX 312m
param *.uav[17].startY 1262m
param *.uav[17].startZ 540m
param *.uav[18].startX 2185m
param *.uav[18].startY 3026m
param *.uav[18].startZ 778m
param *.uav[19].startX 3537m
param *.uav[19].startY 965m
param *.uav[19].startZ 539m
param *.uav[20].startX 3537m
param *.uav[20].startY 965m
param *.uav[20].startZ 539m
param *.uav[21].startX 312m
param *.uav[21].startY 1262m
param *.uav[21].startZ 540m
param *.uav[22].startX 2185m
param *.uav[22].startY 3026m
param *.uav[22].startZ 778m
param *.uav[23].startX 3537m
param *.uav[23].startY 965m
param *.uav[23].startZ 539m
param *.uav[24].startX 312m
param *.uav[24].startY 1262m
param *.uav[24].startZ 540m
param *.uav[25].startX 2185m
param *.uav[25].startY 3026m
param *.uav[25].startZ 778m
param *.uav[26].startX 3537m
param *.uav[26].startY 965m
param *.uav[26].startZ 539m
param *.uav[27].startX 312m
param *.uav[27].startY 1262m
param *.uav[27].startZ 540m
param *.uav[28].startX 2185m
param *.uav[28].startY 3026m
param *.uav[28].startZ 778m
param *.uav[29].startX 3537m
param *.uav[29].startY 965m
param *.uav[29].startZ 539m
param *.uav[30].startX 3537m
param *.uav[30].startY 965m
param *.uav[30].startZ 539m
param *.uav[31].startX 312m
param *.uav[31].startY 1262m
param *.uav[31].startZ 540m
param *.uav[32].startX 2185m
param *.uav[32].startY 3026m
param *.uav[32].startZ 778m
param *.uav[33].startX 3537m
param *.uav[33].startY 965m
param *.uav[33].startZ 539m
param *.uav[34].startX 312m
param *.uav[34].startY 1262m
param *.uav[34].startZ 540m
param *.uav[35].startX 2185m
param *.uav[35].startY 3026m
param *.uav[35].startZ 778m
param *.uav[36].startX 3537m
param *.uav[36].startY 965m
param *.uav[36].startZ 539m
param *.uav[37].startX 312m
param *.uav[37].startY 1262m
param *.uav[37].startZ 540m
param *.uav[38].startX 2185m
param *.uav[38].startY 3026m
param *.uav[38].startZ 778m
param *.uav[39].startX 3537m
param *.uav[39].startY 965m
param *.uav[39].startZ 539m
param *.uav[40].startX 3537m
param *.uav[40].startY 965m
param *.uav[40].startZ 539m
param *.uav[41].startX 312m
param *.uav[41].startY 1262m
param *.uav[41].startZ 540m
param *.uav[42].startX 2185m
param *.uav[42].startY 3026m
param *.uav[42].startZ 778m
param *.uav[43].startX 3537m
param *.uav[43].startY 965m
param *.uav[43].startZ 539m
param *.uav[44].startX 312m
param *.uav[44].startY 1262m
param *.uav[44].startZ 540m
param *.uav[45].startX 2185m
param *.uav[45].startY 3026m
param *.uav[45].startZ 778m
param *.uav[46].startX 3537m
param *.uav[46].startY 965m
param *.uav[46].startZ 539m
param *.uav[47].startX 312m
param *.uav[47].startY 1262m
param *.uav[47].startZ 540m
param *.uav[48].startX 2185m
param *.uav[48].startY 3026m
param *.uav[48].startZ 778m
param *.uav[49].startX 3537m
param *.uav[49].startY 965m
param *.uav[49].startZ 539m
param *.uav[50].startX 3537m
param *.uav[50].startY 965m
param *.uav[50].startZ 539m
param *.uav[51].startX 312m
param *.uav[51].startY 1262m
param *.uav[51].startZ 540m
param *.uav[52].startX 2185m
param *.uav[52].startY 3026m
param *.uav[52].startZ 778m
param *.uav[53].startX 3537m
param *.uav[53].startY 965m
param *.uav[53].startZ 539m
param *.uav[54].startX 312m
param *.uav[54].startY 1262m
param *.uav[54].startZ 540m
param *.uav[55].startX 2185m
param *.uav[55].startY 3026m
param *.uav[55].startZ 778m
param *.uav[56].startX 3537m
param *.uav[56].startY 965m
param *.uav[56].startZ 539m
param *.uav[57].startX 312m
param *.uav[57].startY 1262m
param *.uav[57].startZ 540m
param *.uav[58].startX 2185m
param *.uav[58].startY 3026m
param *.uav[58].startZ 778m
param *.uav[59].startX 3537m
param *.uav[59].startY 965m
param *.uav[59].startZ 539m
param *.uav[60].startX 3537m
param *.uav[60].startY 965m
param *.uav[60].startZ 539m
param *.uav[61].startX 312m
param *.uav[61].startY 1262m
param *.uav[61].startZ 540m
param *.uav[62].startX 2185m
param *.uav[62].startY 3026m
param *.uav[62].startZ 778m
param *.uav[63].startX 3537m
param *.uav[63].startY 965m
param *.uav[63].startZ 539m
param *.uav[64].startX 312m
param *.uav[64].startY 1262m
param *.uav[64].startZ 540m
param *.uav[65].startX 2185m
param *.uav[65].startY 3026m
param *.uav[65].startZ 778m
param *.uav[66].startX 3537m
param *.uav[66].startY 965m
param *.uav[66].startZ 539m
param *.uav[67].startX 312m
param *.uav[67].startY 1262m
param *.uav[67].startZ 540m
param *.uav[68].startX 2185m
param *.uav[68].startY 3026m
param *.uav[68].startZ 778m
param *.uav[69].startX 3537m
param *.uav[69].startY 965m
param *.uav[69].startZ 539m
param *.uav[70].startX 3537m
param *.uav[70].startY 965m
param *.uav[70].startZ 539m
param *.uav[71].startX 312m
param *.uav[71].startY 1262m
param *.uav[71].startZ 540m
param *.uav[72].startX 2185m
param *.uav[72].startY 3026m
param *.uav[72].startZ 778m
param *.uav[73].startX 3537m
param *.uav[73].startY 965m
param *.uav[73].startZ 539m
param *.uav[74].startX 312m
param *.uav[74].startY 1262m
param *.uav[74].startZ 540m
param *.uav[75].startX 2185m
param *.uav[75].startY 3026m
param *.uav[75].startZ 778m
param *.uav[76].startX 3537m
param *.uav[76].startY 965m
param *.uav[76].startZ 539m
param *.uav[77].startX 312m
param *.uav[77].startY 1262m
param *.uav[77].startZ 540m
param *.uav[78].startX 2185m
param *.uav[78].startY 3026m
param *.uav[78].startZ 778m
param *.uav[79].startX 3537m
param *.uav[79].startY 965m
param *.uav[79].startZ 539m
param *.uav[80].startX 3537m
param *.uav[80].startY 965m
param *.uav[80].startZ 539m
param *.uav[81].startX 312m
param *.uav[81].startY 1262m
param *.uav[81].startZ 540m
param *.uav[82].startX 2185m
param *.uav[82].startY 3026m
param *.uav[82].startZ 778m
param *.uav[83].startX 3537m
param *.uav[83].startY 965m
param *.uav[83].startZ 539m
param *.uav[84].startX 312m
param *.uav[84].startY 1262m
param *.uav[84].startZ 540m
param *.uav[85].startX 2185m
param *.uav[85].startY 3026m
param *.uav[85].startZ 778m
param *.uav[86].startX 3537m
param *.uav[86].startY 965m
param *.uav[86].startZ 539m
param *.uav[87].startX 312m
param *.uav[87].startY 1262m
param *.uav[87].startZ 540m
param *.uav[88].startX 2185m
param *.uav[88].startY 3026m
param *.uav[88].startZ 778m
param *.uav[89].startX 3537m
param *.uav[89].startY 965m
param *.uav[89].startZ 539m
param *.uav[90].startX 3537m
param *.uav[90].startY 965m
param *.uav[90].startZ 539m
param *.uav[91].startX 312m
param *.uav[91].startY 1262m
param *.uav[91].startZ 540m
param *.uav[92].startX 2185m
param *.uav[92].startY 3026m
param *.uav[92].startZ 778m
param *.uav[93].startX 3537m
param *.uav[93].startY 965m
param *.uav[93].startZ 539m
param *.uav[94].startX 312m
param *.uav[94].startY 1262m
param *.uav[94].startZ 540m
param *.uav[95].startX 2185m
param *.uav[95].startY 3026m
param *.uav[95].startZ 778m
param *.uav[96].startX 3537m
param *.uav[96].startY 965m
param *.uav[96].startZ 539m
param *.uav[97].startX 312m
param *.uav[97].startY 1262m
param *.uav[97].startZ 540m
param *.uav[98].startX 2185m
param *.uav[98].startY 3026m
param *.uav[98].startZ 778m
param *.uav[99].startX 3537m
param *.uav[99].startY 965m
param *.uav[99].startZ 539m
param *.osgEarthScene.scene "\"boston.earth\""
param *.playgroundLatitude 42.3558
param *.playgroundLongitude -71.0677
param *.playgroundWidth 400m
param *.playgroundHeight 200m
param *.channelController.connectionColor "\"#0000FF40\""
param *.channelController.showConnections false
param *.uav[*].modelURL "\"quadrocopter.small.obj.15.scale.0,0,90.rot\""
param *.uav[*].labelColor "\"#FF7C00CC\""
param *.uav[*].label2Color "\"#FF7C00EE\""
param *.uav[*].batteryCapacity 5200mAh
param *.uav[*].batteryRemaining uav[index].batteryCapacity
param *.uav[*].predictionQuantile 0.95
param *.uav[*].replacementMethod 2
param *.uav[*].weightedSumWeight 0.5
param *.cs[*].modelURL "\"chargingstation_v1.osgt.1.scale.0,0,0.rot.0,0,-15e-1.trans\""
param *.cs[*].spotsWaiting 999
param *.cs[*].spotsCharging 999
param *.cs[*].chargeEffectivenessPercentage 100
param *.cs[*].nonLinearPhaseStartPercentage 85
param *.cs[*].chargeCurrent 6.0A
param *.cs[*].prioritizeFastCharge true
param *.missionControl.replacementSearchMethod 0
param *.*.timeStep 9s

scalar OsgEarthNet.uav[0] utilizationSecMission 0
scalar OsgEarthNet.uav[0] utilizationSecMaintenance 0
scalar OsgEarthNet.uav[0] utilizationSecCharge 0
scalar OsgEarthNet.uav[0] utilizationSecIdle 3281.7403333021
scalar OsgEarthNet.uav[0] utilizationEnergyMission 0
scalar OsgEarthNet.uav[0] utilizationEnergyMaintenance 0
scalar OsgEarthNet.uav[0] utilizationEnergyCharge 0
scalar OsgEarthNet.uav[0] utilizationEnergyOverdrawMission 0
scalar OsgEarthNet.uav[0] utilizationEnergyOverdrawMaintenance 0
scalar OsgEarthNet.uav[0] utilizationCountMissions 0
scalar OsgEarthNet.uav[0] utilizationCountManeuversMission 0
scalar OsgEarthNet.uav[0] utilizationCountManeuversMaintenance 0
scalar OsgEarthNet.uav[0] utilizationCountChargeState 0
scalar OsgEarthNet.uav[0] utilizationCountOverdrawnAfterMission 0
scalar OsgEarthNet.uav[0] utilizationCountIdleState 1
scalar OsgEarthNet.uav[0] utilizationFail 0
scalar OsgEarthNet.uav[0] simulationTime 3281.7413333021
scalar OsgEarthNet.uav[1] utilizationSecMission 0
scalar OsgEarthNet.uav[1] utilizationSecMaintenance 0
scalar OsgEarthNet.uav[1] utilizationSecCharge 0
scalar OsgEarthNet.uav[1] utilizationSecIdle 3281.7403333021
scalar OsgEarthNet.uav[1] utilizationEnergyMission 0
scalar OsgEarthNet.uav[1] utilizationEnergyMaintenance 0
scalar OsgEarthNet.uav[1] utilizationEnergyCharge 0
scalar OsgEarthNet.uav[1] utilizationEnergyOverdrawMission 0
scalar OsgEarthNet.uav[1] utilizationEnergyOverdrawMaintenance 0
scalar OsgEarthNet.uav[1] utilizationCountMissions 0
scalar OsgEarthNet.uav[1] utilizationCountManeuversMission 0
scalar OsgEarthNet.uav[1] utilizationCountManeuversMaintenance 0
scalar OsgEarthNet.uav[1] utilizationCountChargeState 0
scalar OsgEarthNet.uav[1] utilizationCountOverdrawnAfterMission 0
scalar OsgEarthNet.uav[1] utilizationCountIdleState 1
scalar OsgEarthNet.uav[1] utilizationFail 0
scalar OsgEarthNet.uav[1] simulationTime 3281.7413333021
scalar OsgEarthNet.uav[2] utilizationSecMission 800
scalar OsgEarthNet.uav[2] utilizationSecMaintenance 262.82841927123
scalar OsgEarthNet.uav[2] utilizationSecCharge 2216.9119140308
scalar OsgEarthNet.uav[2] utilizationSecIdle 2
scalar OsgEarthNet.uav[2] utilizationEnergyMission 3748.8454818726
scalar OsgEarthNet.uav[2] utilizationEnergyMaintenance 1063.8078727722
scalar OsgEarthNet.uav[2] utilizationEnergyCharge 3857.1440429688
scalar OsgEarthNet.uav[2] utilizationEnergyOverdrawMission 0
scalar OsgEarthNet.uav[2] utilizationEnergyOverdrawMaintenance 0
scalar OsgEarthNet.uav[2] utilizationCountMissions 1
scalar OsgEarthNet.uav[2] utilizationCountManeuversMission 40
scalar OsgEarthNet.uav[2] utilizationCountManeuversMaintenance 2
scalar OsgEarthNet.uav[2] utilizationCountChargeState 1
scalar OsgEarthNet.uav[2] utilizationCountOverdrawnAfterMission 0
scalar OsgEarthNet.uav[2] utilizationCountIdleState 1
scalar OsgEarthNet.uav[2] utilizationFail 0
scalar OsgEarthNet.uav[2] simulationTime 3281.7413333021
scalar OsgEarthNet.uav[3] utilizationSecMission 808.92912618568
scalar OsgEarthNet.uav[3] utilizationSecMaintenance 133.85464818756
scalar OsgEarthNet.uav[3] utilizationSecCharge 2336.9565589288
scalar OsgEarthNet.uav[3] utilizationSecIdle 2
scalar OsgEarthNet.uav[3] utilizationEnergyMission 3892.4403381348
scalar OsgEarthNet.uav[3] utilizationEnergyMaintenance 711.40839767456
scalar OsgEarthNet.uav[3] utilizationEnergyCharge 4038.7319335938
scalar OsgEarthNet.uav[3] utilizationEnergyOverdrawMission 0
scalar OsgEarthNet.uav[3] utilizationEnergyOverdrawMaintenance 0
scalar OsgEarthNet.uav[3] utilizationCountMissions 1
scalar OsgEarthNet.uav[3] utilizationCountManeuversMission 10
scalar OsgEarthNet.uav[3] utilizationCountManeuversMaintenance 1
scalar OsgEarthNet.uav[3] utilizationCountChargeState 1
scalar OsgEarthNet.uav[3] utilizationCountOverdrawnAfterMission 0
scalar OsgEarthNet.uav[3] utilizationCountIdleState 1
scalar OsgEarthNet.uav[3] utilizationFail 0
scalar OsgEarthNet.uav[3] simulationTime 3281.7413333021
scalar OsgEarthNet.uav[4] utilizationSecMission 580
scalar OsgEarthNet.uav[4] utilizationSecMaintenance 159.73633330206
scalar OsgEarthNet.uav[4] utilizationSecCharge 0
scalar OsgEarthNet.uav[4] utilizationSecIdle 2542.004
scalar OsgEarthNet.uav[4] utilizationEnergyMission 2957.0628433228
scalar OsgEarthNet.uav[4] utilizationEnergyMaintenance 839.96903183359
scalar OsgEarthNet.uav[4] utilizationEnergyCharge 0
scalar OsgEarthNet.uav[4] utilizationEnergyOverdrawMission 0
scalar OsgEarthNet.uav[4] utilizationEnergyOverdrawMaintenance 0
scalar OsgEarthNet.uav[4] utilizationCountMissions 1
scalar OsgEarthNet.uav[4] utilizationCountManeuversMission 29
scalar OsgEarthNet.uav[4] utilizationCountManeuversMaintenance 2
scalar OsgEarthNet.uav[4] utilizationCountChargeState 0
scalar OsgEarthNet.uav[4] utilizationCountOverdrawnAfterMission 0
scalar OsgEarthNet.uav[4] utilizationCountIdleState 1
scalar OsgEarthNet.uav[4] utilizationFail 0
scalar OsgEarthNet.uav[4] simulationTime 3281.7413333021
scalar OsgEarthNet.uav[5] utilizationSecMission 0
scalar OsgEarthNet.uav[5] utilizationSecMaintenance 0
scalar OsgEarthNet.uav[5] utilizationSecCharge 0
scalar OsgEarthNet.uav[5] utilizationSecIdle 3281.7403333021
scalar OsgEarthNet.uav[5] utilizationEnergyMission 0
scalar OsgEarthNet.uav[5] utilizationEnergyMaintenance 0
scalar OsgEarthNet.uav[5] utilizationEnergyCharge 0
scalar OsgEarthNet.uav[5] utilizationEnergyOverdrawMission 0
scalar OsgEarthNet.uav[5] utilizationEnergyOverdrawMaintenance 0
scalar OsgEarthNet.uav[5] utilizationCountMissions 0
scalar OsgEarthNet.uav[5] utilizationCountManeuversMission 0
scalar OsgEarthNet.uav[5] utilizationCountManeuversMaintenance 0
scalar OsgEarthNet.uav[5] utilizationCountChargeState 0
scalar OsgEarthNet.uav[5] utilizationCountOverdrawnAfterMission 0
scalar OsgEarthNet.uav[5] utilizationCountIdleState 1
scalar OsgEarthNet.uav[5] utilizationFail 0
scalar OsgEarthNet.uav[5] simulationTime 3281.7413333021
scalar OsgEarthNet.uav[6] utilizationSecMission 0
scalar OsgEarthNet.uav[6] utilizationSecMaintenance 0
scalar OsgEarthNet.uav[6] utilizationSecCharge 0
scalar OsgEarthNet.uav[6] utilizationSecIdle 3281.7403333021
scalar OsgEarthNet.uav[6] utilizationEnergyMission 0
scalar OsgEarthNet.uav[6] utilizationEnergyMaintenance 0
scalar OsgEarthNet.uav[6] utilizationEnergyCharge 0
scalar OsgEarthNet.uav[6] utilizationEnergyOverdrawMission 0
scalar OsgEarthNet.uav[6] utilizationEnergyOverdrawMaintenance 0
scalar OsgEarthNet.uav[6] utilizationCountMissions 0
scalar OsgEarthNet.uav[6] utilizationCountManeuversMission 0
scalar OsgEarthNet.uav[6] utilizationCountManeuversMaintenance 0
scalar OsgEarthNet.uav[6] utilizationCountChargeState 0
scalar OsgEarthNet.uav[6] utilizationCountOverdrawnAfterMission 0
scalar OsgEarthNet.uav[6] utilizationCountIdleState 1
scalar OsgEarthNet.uav[6] utilizationFail 0
scalar OsgEarthNet.uav[6] simulationTime 3281.7413333021
scalar OsgEarthNet.uav[7] utilizationSecMission 0
scalar OsgEarthNet.uav[7] utilizationSecMaintenance 0
scalar OsgEarthNet.uav[7] utilizationSecCharge 0
scalar OsgEarthNet.uav[7] utilizationSecIdle 3281.7403333021
scalar OsgEarthNet.uav[7] utilizationEnergyMission 0
scalar OsgEarthNet.uav[7] utilizationEnergyMaintenance 0
scalar OsgEarthNet.uav[7] utilizationEnergyCharge 0
scalar OsgEarthNet.uav[7] utilizationEnergyOverdrawMission 0
scalar OsgEarthNet.uav[7] utilizationEnergyOverdrawMaintenance 0
scalar OsgEarthNet.uav[7] utilizationCountMissions 0
scalar OsgEarthNet.uav[7] utilizationCountManeuversMission 0
scalar OsgEarthNet.uav[7] utilizationCountManeuversMaintenance 0
scalar OsgEarthNet.uav[7] utilizationCountChargeState 0
scalar OsgEarthNet.uav[7] utilizationCountOverdrawnAfterMission 0
scalar OsgEarthNet.uav[7] utilizationCountIdleState 1
scalar OsgEarthNet.uav[7] utilizationFail 0
scalar OsgEarthNet.uav[7] simulationTime 3281.7413333021
scalar OsgEarthNet.uav[8] utilizationSecMission 232.60566783412
scalar OsgEarthNet.uav[8] utilizationSecMaintenance 158.4266081015
scalar OsgEarthNet.uav[8] utilizationSecCharge 0
scalar OsgEarthNet.uav[8] utilizationSecIdle 2890.7080573664
scalar OsgEarthNet.uav[8] utilizationEnergyMission 1079.5926552945
scalar OsgEarthNet.uav[8] utilizationEnergyMaintenance 736.81097412109
scalar OsgEarthNet.uav[8] utilizationEnergyCharge 0
scalar OsgEarthNet.uav[8] utilizationEnergyOverdrawMission 0
scalar OsgEarthNet.uav[8] utilizationEnergyOverdrawMaintenance 0
scalar OsgEarthNet.uav[8] utilizationCountMissions 0
scalar OsgEarthNet.uav[8] utilizationCountManeuversMission 4
scalar OsgEarthNet.uav[8] utilizationCountManeuversMaintenance 1
scalar OsgEarthNet.uav[8] utilizationCountChargeState 0
scalar OsgEarthNet.uav[8] utilizationCountOverdrawnAfterMission 0
scalar OsgEarthNet.uav[8] utilizationCountIdleState 1
scalar OsgEarthNet.uav[8] utilizationFail 0
scalar OsgEarthNet.uav[8] simulationTime 3281.7413333021
scalar OsgEarthNet.uav[9] utilizationSecMission 0
scalar OsgEarthNet.uav[9] utilizationSecMaintenance 0
scalar OsgEarthNet.uav[9] utilizationSecCharge 0
scalar OsgEarthNet.uav[9] utilizationSecIdle 3281.7403333021
scalar OsgEarthNet.uav[9] utilizationEnergyMission 0
scalar OsgEarthNet.uav[9] utilizationEnergyMaintenance 0
scalar OsgEarthNet.uav[9] utilizationEnergyCharge 0
scalar OsgEarthNet.uav[9] utilizationEnergyOverdrawMission 0
scalar OsgEarthNet.uav[9] utilizationEnergyOverdrawMaintenance 0
scalar OsgEarthNet.uav[9] utilizationCountMissions 0
scalar OsgEarthNet.uav[9] utilizationCountManeuversMission 0
scalar OsgEarthNet.uav[9] utilizationCountManeuversMaintenance 0
scalar OsgEarthNet.uav[9] utilizationCountChargeState 0
scalar OsgEarthNet.uav[9] utilizationCountOverdrawnAfterMission 0
scalar OsgEarthNet.uav[9] utilizationCountIdleState 1
scalar OsgEarthNet.uav[9] utilizationFail 0
scalar OsgEarthNet.uav[9] simulationTime 3281.7413333021
scalar OsgEarthNet.uav[10] utilizationSecMission 0
scalar OsgEarthNet.uav[10] utilizationSecMaintenance 0
scalar OsgEarthNet.uav[10] utilizationSecCharge 0
scalar OsgEarthNet.uav[10] utilizationSecIdle 3281.7403333021
scalar OsgEarthNet.uav[10] utilizationEnergyMission 0
scalar OsgEarthNet.uav[10] utilizationEnergyMaintenance 0
scalar OsgEarthNet.uav[10] utilizationEnergyCharge 0
scalar OsgEarthNet.uav[10] utilizationEnergyOverdrawMission 0
scalar OsgEarthNet.uav[10] utilizationEnergyOverdrawMaintenance 0
scalar OsgEarthNet.uav[10] utilizationCountMissions 0
scalar OsgEarthNet.uav[10] utilizationCountManeuversMission 0
scalar OsgEarthNet.uav[10] utilizationCountManeuversMaintenance 0
scalar OsgEarthNet.uav[10] utilizationCountChargeState 0
scalar OsgEarthNet.uav[10] utilizationCountOverdrawnAfterMission 0
scalar OsgEarthNet.uav[10] utilizationCountIdleState 1
scalar OsgEarthNet.uav[10] utilizationFail 0
scalar OsgEarthNet.uav[10] simulationTime 3281.7413333021
scalar OsgEarthNet.uav[11] utilizationSecMission 0
scalar OsgEarthNet.uav[11] utilizationSecMaintenance 0
scalar OsgEarthNet.uav[11] utilizationSecCharge 0
scalar OsgEarthNet.uav[11] utilizationSecIdle 3281.7403333021
scalar OsgEarthNet.uav[11] utilizationEnergyMission 0
scalar OsgEarthNet.uav[11] utilizationEnergyMaintenance 0
scalar OsgEarthNet.uav[11] utilizationEnergyCharge 0
scalar OsgEarthNet.uav[11] utilizationEnergyOverdrawMission 0
scalar OsgEarthNet.uav[11] utilizationEnergyOverdrawMaintenance 0
scalar OsgEarthNet.uav[11] utilizationCountMissions 0
scalar OsgEarthNet.uav[11] utilizationCountManeuversMission 0
scalar OsgEarthNet.uav[11] utilizationCountManeuversMaintenance 0
scalar OsgEarthNet.uav[11] utilizationCountChargeState 0
scalar OsgEarthNet.uav[11] utilizationCountOverdrawnAfterMission 0
scalar OsgEarthNet.uav[11] utilizationCountIdleState 1
scalar OsgEarthNet.uav[11] utilizationFail 0
scalar OsgEarthNet.uav[11] simulationTime 3281.7413333021
scalar OsgEarthNet.uav[12] utilizationSecMission 740
scalar OsgEarthNet.uav[12] utilizationSecMaintenance 262.82841927123
scalar OsgEarthNet.uav[12] utilizationSecCharge 712.58653459808
scalar OsgEarthNet.uav[12] utilizationSecIdle 1566.3253794327
scalar OsgEarthNet.uav[12] utilizationEnergyMission 3650.808216095
scalar OsgEarthNet.uav[12] utilizationEnergyMaintenance 1234.32264328
scalar OsgEarthNet.uav[12] utilizationEnergyCharge 1247.3668212891
scalar OsgEarthNet.uav[12] utilizationEnergyOverdrawMission 0
scalar OsgEarthNet.uav[12] utilizationEnergyOverdrawMaintenance 0
scalar OsgEarthNet.uav[12] utilizationCountMissions 1
scalar OsgEarthNet.uav[12] utilizationCountManeuversMission 37
scalar OsgEarthNet.uav[12] utilizationCountManeuversMaintenance 2
scalar OsgEarthNet.uav[12] utilizationCountChargeState 1
scalar OsgEarthNet.uav[12] utilizationCountOverdrawnAfterMission 0
scalar OsgEarthNet.uav[12] utilizationCountIdleState 1
scalar OsgEarthNet.uav[12] utilizationFail 0
scalar OsgEarthNet.uav[12] simulationTime 3281.7413333021
scalar OsgEarthNet.uav[13] utilizationSecMission 0
scalar OsgEarthNet.uav[13] utilizationSecMaintenance 0
scalar OsgEarthNet.uav[13] utilizationSecCharge 0
scalar OsgEarthNet.uav[13] utilizationSecIdle 3281.7403333021
scalar OsgEarthNet.uav[13] utilizationEnergyMission 0
scalar OsgEarthNet.uav[13] utilizationEnergyMaintenance 0
scalar OsgEarthNet.uav[13] utilizationEnergyCharge 0
scalar OsgEarthNet.uav[13] utilizationEnergyOverdrawMission 0
scalar OsgEarthNet.uav[13] utilizationEnergyOverdrawMaintenance 0
scalar OsgEarthNet.uav[13] utilizationCountMissions 0
scalar OsgEarthNet.uav[13] utilizationCountManeuversMission 0
scalar OsgEarthNet.uav[13] utilizationCountManeuversMaintenance 0
scalar OsgEarthNet.uav[13] utilizationCountChargeState 0
scalar OsgEarthNet.uav[13] utilizationCountOverdrawnAfterMission 0
scalar OsgEarthNet.uav[13] utilizationCountIdleState 1
scalar OsgEarthNet.uav[13] utilizationFail 0
scalar OsgEarthNet.uav[13] simulationTime 3281.7413333021
scalar OsgEarthNet.uav[14] utilizationSecMission 0
scalar OsgEarthNet.uav[14] utilizationSecMaintenance 0
scalar OsgEarthNet.uav[14] utilizationSecCharge 0
scalar OsgEarthNet.uav[14] utilizationSecIdle 3281.7403333021
scalar OsgEarthNet.uav[14] utilizationEnergyMission 0
scalar OsgEarthNet.uav[14] utilizationEnergyMaintenance 0
scalar OsgEarthNet.uav[14] utilizationEnergyCharge 0
scalar OsgEarthNet.uav[14] utilizationEnergyOverdrawMission 0
scalar OsgEarthNet.uav[14] utilizationEnergyOverdrawMaintenance 0
scalar OsgEarthNet.uav[14] utilizationCountMissions 0
scalar OsgEarthNet.uav[14] utilizationCountManeuversMission 0
scalar OsgEarthNet.uav[14] utilizationCountManeuversMaintenance 0
scalar OsgEarthNet.uav[14] utilizationCountChargeState 0
scalar OsgEarthNet.uav[14] utilizationCountOverdrawnAfterMission 0
scalar OsgEarthNet.uav[14] utilizationCountIdleState 1
scalar OsgEarthNet.uav[14] utilizationFail 0
scalar OsgEarthNet.uav[14] simulationTime 3281.7413333021
scalar OsgEarthNet.uav[15] utilizationSecMission 0
scalar OsgEarthNet.uav[15] utilizationSecMaintenance 0
scalar OsgEarthNet.uav[15] utilizationSecCharge 0
scalar OsgEarthNet.uav[15] utilizationSecIdle 3281.7403333021
scalar OsgEarthNet.uav[15] utilizationEnergyMission 0
scalar OsgEarthNet.uav[15] utilizationEnergyMaintenance 0
scalar OsgEarthNet.uav[15] utilizationEnergyCharge 0
scalar OsgEarthNet.uav[15] utilizationEnergyOverdrawMission 0
scalar OsgEarthNet.uav[15] utilizationEnergyOverdrawMaintenance 0
scalar OsgEarthNet.uav[15] utilizationCountMissions 0
scalar OsgEarthNet.uav[15] utilizationCountManeuversMission 0
scalar OsgEarthNet.uav[15] utilizationCountManeuversMaintenance 0
scalar OsgEarthNet.uav[15] utilizationCountChargeState 0
scalar OsgEarthNet.uav[15] utilizationCountOverdrawnAfterMission 0
scalar OsgEarthNet.uav[15] utilizationCountIdleState 1
scalar OsgEarthNet.uav[15] utilizationFail 0
scalar OsgEarthNet.uav[15] simulationTime 3281.7413333021
scalar OsgEarthNet.uav[16] utilizationSecMission 0
scalar OsgEarthNet.uav[16] utilizationSecMaintenance 0
scalar OsgEarthNet.uav[16] utilizationSecCharge 0
scalar OsgEarthNet.uav[16] utilizationSecIdle 3281.7403333021
scalar OsgEarthNet.uav[16] utilizationEnergyMission 0
scalar OsgEarthNet.uav[16] utilizationEnergyMaintenance 0
scalar OsgEarthNet.uav[16] utilizationEnergyCharge 0
scalar OsgEarthNet.uav[16] utilizationEnergyOverdrawMission 0
scalar OsgEarthNet.uav[16] utilizationEnergyOverdrawMaintenance 0
scalar OsgEarthNet.uav[16] utilizationCountMissions 0
scalar OsgEarthNet.uav[16] utilizationCountManeuversMission 0
scalar OsgEarthNet.uav[16] utilizationCountManeuversMaintenance 0
scalar OsgEarthNet.uav[16] utilizationCountChargeState 0
scalar OsgEarthNet.uav[16] utilizationCountOverdrawnAfterMission 0
scalar OsgEarthNet.uav[16] utilizationCountIdleState 1
scalar OsgEarthNet.uav[16] utilizationFail 0
scalar OsgEarthNet.uav[16] simulationTime 3281.7413333021
scalar OsgEarthNet.uav[17] utilizationSecMission 600
scalar OsgEarthNet.uav[17] utilizationSecMaintenance 395.21104267299
scalar OsgEarthNet.uav[17] utilizationSecCharge 2284.5292906291
scalar OsgEarthNet.uav[17] utilizationSecIdle 2
scalar OsgEarthNet.uav[17] utilizationEnergyMission 2932.2496490479
scalar OsgEarthNet.uav[17] utilizationEnergyMaintenance 1888.3906974792
scalar OsgEarthNet.uav[17] utilizationEnergyCharge 3936.7646484375
scalar OsgEarthNet.uav[17] utilizationEnergyOverdrawMission 0
scalar OsgEarthNet.uav[17] utilizationEnergyOverdrawMaintenance 0
scalar OsgEarthNet.uav[17] utilizationCountMissions 1
scalar OsgEarthNet.uav[17] utilizationCountManeuversMission 30
scalar OsgEarthNet.uav[17] utilizationCountManeuversMaintenance 2
scalar OsgEarthNet.uav[17] utilizationCountChargeState 1
scalar OsgEarthNet.uav[17] utilizationCountOverdrawnAfterMission 0
scalar OsgEarthNet.uav[17] utilizationCountIdleState 1
scalar OsgEarthNet.uav[17] utilizationFail 0
scalar OsgEarthNet.uav[17] simulationTime 3281.7413333021
scalar OsgEarthNet.uav[18] utilizationSecMission 750.20472747826
scalar OsgEarthNet.uav[18] utilizationSecMaintenance 255.5651663541
scalar OsgEarthNet.uav[18] utilizationSecCharge 1586.750825554
scalar OsgEarthNet.uav[18] utilizationSecIdle 689.21961391566
scalar OsgEarthNet.uav[18] utilizationEnergyMission 3182.7109985352
scalar OsgEarthNet.uav[18] utilizationEnergyMaintenance 1452.1359367371
scalar OsgEarthNet.uav[18] utilizationEnergyCharge 2776.5356445312
scalar OsgEarthNet.uav[18] utilizationEnergyOverdrawMission 0
scalar OsgEarthNet.uav[18] utilizationEnergyOverdrawMaintenance 0
scalar OsgEarthNet.uav[18] utilizationCountMissions 1
scalar OsgEarthNet.uav[18] utilizationCountManeuversMission 11
scalar OsgEarthNet.uav[18] utilizationCountManeuversMaintenance 2
scalar OsgEarthNet.uav[18] utilizationCountChargeState 1
scalar OsgEarthNet.uav[18] utilizationCountOverdrawnAfterMission 0
scalar OsgEarthNet.uav[18] utilizationCountIdleState 1
scalar OsgEarthNet.uav[18] utilizationFail 0
scalar OsgEarthNet.uav[18] simulationTime 3281.7413333021
scalar OsgEarthNet.uav[19] utilizationSecMission 0
scalar OsgEarthNet.uav[19] utilizationSecMaintenance 0
scalar OsgEarthNet.uav[19] utilizationSecCharge 0
scalar OsgEarthNet.uav[19] utilizationSecIdle 3281.7403333021
scalar OsgEarthNet.uav[19] utilizationEnergyMission 0
scalar OsgEarthNet.uav[19] utilizationEnergyMaintenance 0
scalar OsgEarthNet.uav[19] utilizationEnergyCharge 0
scalar OsgEarthNet.uav[19] utilizationEnergyOverdrawMission 0
scalar OsgEarthNet.uav[19] utilizationEnergyOverdrawMaintenance 0
scalar OsgEarthNet.uav[19] utilizationCountMissions 0
scalar OsgEarthNet.uav[19] utilizationCountManeuversMission 0
scalar OsgEarthNet.uav[19] utilizationCountManeuversMaintenance 0
scalar OsgEarthNet.uav[19] utilizationCountChargeState 0
scalar OsgEarthNet.uav[19] utilizationCountOverdrawnAfterMission 0
scalar OsgEarthNet.uav[19] utilizationCountIdleState 1
scalar OsgEarthNet.uav[19] utilizationFail 0
scalar OsgEarthNet.uav[19] simulationTime 3281.7413333021
scalar OsgEarthNet.uav[20] utilizationSecMission 0
scalar OsgEarthNet.uav[20] utilizationSecMaintenance 0
scalar OsgEarthNet.uav[20] utilizationSecCharge 0
scalar OsgEarthNet.uav[20] utilizationSecIdle 3281.7403333021
scalar OsgEarthNet.uav[20] utilizationEnergyMission 0
scalar OsgEarthNet.uav[20] utilizationEnergyMaintenance 0
scalar OsgEarthNet.uav[20] utilizationEnergyCharge 0
scalar OsgEarthNet.uav[20] utilizationEnergyOverdrawMission 0
scalar OsgEarthNet.uav[20] utilizationEnergyOverdrawMaintenance 0
scalar OsgEarthNet.uav[20] utilizationCountMissions 0
scalar OsgEarthNet.uav[20] utilizationCountManeuversMission 0
scalar OsgEarthNet.uav[20] utilizationCountManeuversMaintenance 0
scalar OsgEarthNet.uav[20] utilizationCountChargeState 0
scalar OsgEarthNet.uav[20] utilizationCountOverdrawnAfterMission 0
scalar OsgEarthNet.uav[20] utilizationCountIdleState 1
scalar OsgEarthNet.uav[20] utilizationFail 0
scalar OsgEarthNet.uav[20] simulationTime 3281.7413333021
scalar OsgEarthNet.uav[21] utilizationSecMission 0
scalar OsgEarthNet.uav[21] utilizationSecMaintenance 0
scalar OsgEarthNet.uav[21] utilizationSecCharge 0
scalar OsgEarthNet.uav[21] utilizationSecIdle 3281.7403333021
scalar OsgEarthNet.uav[21] utilizationEnergyMission 0
scalar OsgEarthNet.uav[21] utilizationEnergyMaintenance 0
scalar OsgEarthNet.uav[21] utilizationEnergyCharge 0
scalar OsgEarthNet.uav[21] utilizationEnergyOverdrawMission 0
scalar OsgEarthNet.uav[21] utilizationEnergyOverdrawMaintenance 0
scalar OsgEarthNet.uav[21] utilizationCountMissions 0
scalar OsgEarthNet.uav[21] utilizationCountManeuversMission 0
scalar OsgEarthNet.uav[21] utilizationCountManeuversMaintenance 0
scalar OsgEarthNet.uav[21] utilizationCountChargeState 0
scalar OsgEarthNet.uav[21] utilizationCountOverdrawnAfterMission 0
scalar OsgEarthNet.uav[21] utilizationCountIdleState 1
scalar OsgEarthNet.uav[21] utilizationFail 0
scalar OsgEarthNet.uav[21] simulationTime 3281.7413333021
scalar OsgEarthNet.uav[22] utilizationSecMission 750.20472747826
scalar OsgEarthNet.uav[22] utilizationSecMaintenance 255.5651663541
scalar OsgEarthNet.uav[22] utilizationSecCharge 86.339358804484
scalar OsgEarthNet.uav[22] utilizationSecIdle 2189.6310806652
scalar OsgEarthNet.uav[22] utilizationEnergyMission 3180.623840332
scalar OsgEarthNet.uav[22] utilizationEnergyMaintenance 1214.8993644714
scalar OsgEarthNet.uav[22] utilizationEnergyCharge 127.52368164062
scalar OsgEarthNet.uav[22] utilizationEnergyOverdrawMission 0
scalar OsgEarthNet.uav[22] utilizationEnergyOverdrawMaintenance 0
scalar OsgEarthNet.uav[22] utilizationCountMissions 1
scalar OsgEarthNet.uav[22] utilizationCountManeuversMission 11
scalar OsgEarthNet.uav[22] utilizationCountManeuversMaintenance 2
scalar OsgEarthNet.uav[22] utilizationCountChargeState 1
scalar OsgEarthNet.uav[22] utilizationCountOverdrawnAfterMission 0
scalar OsgEarthNet.uav[22] utilizationCountIdleState 1
scalar OsgEarthNet.uav[22] utilizationFail 0
scalar OsgEarthNet.uav[22] simulationTime 3281.7413333021
scalar OsgEarthNet.uav[23] utilizationSecMission 938.36583277569
scalar OsgEarthNet.uav[23] utilizationSecMaintenance 134.41385626953
scalar OsgEarthNet.uav[23] utilizationSecCharge 2206.9606442568
scalar OsgEarthNet.uav[23] utilizationSecIdle 2
scalar OsgEarthNet.uav[23] utilizationEnergyMission 4587.1210723648
scalar OsgEarthNet.uav[23] utilizationEnergyMaintenance 554.06272506714
scalar OsgEarthNet.uav[23] utilizationEnergyCharge 3850.4855957031
scalar OsgEarthNet.uav[23] utilizationEnergyOverdrawMission 0
scalar OsgEarthNet.uav[23] utilizationEnergyOverdrawMaintenance 0
scalar OsgEarthNet.uav[23] utilizationCountMissions 1
scalar OsgEarthNet.uav[23] utilizationCountManeuversMission 14
scalar OsgEarthNet.uav[23] utilizationCountManeuversMaintenance 1
scalar OsgEarthNet.uav[23] utilizationCountChargeState 1
scalar OsgEarthNet.uav[23] utilizationCountOverdrawnAfterMission 0
scalar OsgEarthNet.uav[23] utilizationCountIdleState 1
scalar OsgEarthNet.uav[23] utilizationFail 0
scalar OsgEarthNet.uav[23] simulationTime 3281.7413333021
scalar OsgEarthNet.uav[24] utilizationSecMission 447.71672069431
scalar OsgEarthNet.uav[24] utilizationSecMaintenance 122.96932125194
scalar OsgEarthNet.uav[24] utilizationSecCharge 0
scalar OsgEarthNet.uav[24] utilizationSecIdle 2711.0542913558
scalar OsgEarthNet.uav[24] utilizationEnergyMission 2045.2006913612
scalar OsgEarthNet.uav[24] utilizationEnergyMaintenance 604.26990890503
scalar OsgEarthNet.uav[24] utilizationEnergyCharge 0
scalar OsgEarthNet.uav[24] utilizationEnergyOverdrawMission 0
scalar OsgEarthNet.uav[24] utilizationEnergyOverdrawMaintenance 0
scalar OsgEarthNet.uav[24] utilizationCountMissions 0
scalar OsgEarthNet.uav[24] utilizationCountManeuversMission 8
scalar OsgEarthNet.uav[24] utilizationCountManeuversMaintenance 1
scalar OsgEarthNet.uav[24] utilizationCountChargeState 0
scalar OsgEarthNet.uav[24] utilizationCountOverdrawnAfterMission 0
scalar OsgEarthNet.uav[24] utilizationCountIdleState 1
scalar OsgEarthNet.uav[24] utilizationFail 0
scalar OsgEarthNet.uav[24] simulationTime 3281.7413333021
scalar OsgEarthNet.uav[25] utilizationSecMission 580
scalar OsgEarthNet.uav[25] utilizationSecMaintenance 390.60696956236
scalar OsgEarthNet.uav[25] utilizationSecCharge 1129.1313637397
scalar OsgEarthNet.uav[25] utilizationSecIdle 1182.002
scalar OsgEarthNet.uav[25] utilizationEnergyMission 3168.2404632568
scalar OsgEarthNet.uav[25] utilizationEnergyMaintenance 1765.7069206238
scalar OsgEarthNet.uav[25] utilizationEnergyCharge 1973.7368164062
scalar OsgEarthNet.uav[25] utilizationEnergyOverdrawMission 0
scalar OsgEarthNet.uav[25] utilizationEnergyOverdrawMaintenance 0
scalar OsgEarthNet.uav[25] utilizationCountMissions 1
scalar OsgEarthNet.uav[25] utilizationCountManeuversMission 29
scalar OsgEarthNet.uav[25] utilizationCountManeuversMaintenance 2
scalar OsgEarthNet.uav[25] utilizationCountChargeState 1
scalar OsgEarthNet.uav[25] utilizationCountOverdrawnAfterMission 0
scalar OsgEarthNet.uav[25] utilizationCountIdleState 1
scalar OsgEarthNet.uav[25] utilizationFail 0
scalar OsgEarthNet.uav[25] simulationTime 3281.7413333021
scalar OsgEarthNet.uav[26] utilizationSecMission 0
scalar OsgEarthNet.uav[26] utilizationSecMaintenance 0
scalar OsgEarthNet.uav[26] utilizationSecCharge 0
scalar OsgEarthNet.uav[26] utilizationSecIdle 3281.7403333021
scalar OsgEarthNet.uav[26] utilizationEnergyMission 0
scalar OsgEarthNet.uav[26] utilizationEnergyMaintenance 0
scalar OsgEarthNet.uav[26] utilizationEnergyCharge 0
scalar OsgEarthNet.uav[26] utilizationEnergyOverdrawMission 0
scalar OsgEarthNet.uav[26] utilizationEnergyOverdrawMaintenance 0
scalar OsgEarthNet.uav[26] utilizationCountMissions 0
scalar OsgEarthNet.uav[26] utilizationCountManeuversMission 0
scalar OsgEarthNet.uav[26] utilizationCountManeuversMaintenance 0
scalar OsgEarthNet.uav[26] utilizationCountChargeState 0
scalar OsgEarthNet.uav[26] utilizationCountOverdrawnAfterMission 0
scalar OsgEarthNet.uav[26] utilizationCountIdleState 1
scalar OsgEarthNet.uav[26] utilizationFail 0
scalar OsgEarthNet.uav[26] simulationTime 3281.7413333021
scalar OsgEarthNet.uav[27] utilizationSecMission 956.33403710107
scalar OsgEarthNet.uav[27] utilizationSecMaintenance 122.09856576224
scalar OsgEarthNet.uav[27] utilizationSecCharge 2201.3077304388
scalar OsgEarthNet.uav[27] utilizationSecIdle 2
scalar OsgEarthNet.uav[27] utilizationEnergyMission 4163.4890899658
scalar OsgEarthNet.uav[27] utilizationEnergyMaintenance 675.07715988159
scalar OsgEarthNet.uav[27] utilizationEnergyCharge 3803.4306640625
scalar OsgEarthNet.uav[27] utilizationEnergyOverdrawMission 0
scalar OsgEarthNet.uav[27] utilizationEnergyOverdrawMaintenance 0
scalar OsgEarthNet.uav[27] utilizationCountMissions 1
scalar OsgEarthNet.uav[27] utilizationCountManeuversMission 15
scalar OsgEarthNet.uav[27] utilizationCountManeuversMaintenance 1
scalar OsgEarthNet.uav[27] utilizationCountChargeState 1
scalar OsgEarthNet.uav[27] utilizationCountOverdrawnAfterMission 0
scalar OsgEarthNet.uav[27] utilizationCountIdleState 1
scalar OsgEarthNet.uav[27] utilizationFail 0
scalar OsgEarthNet.uav[27] simulationTime 3281.7413333021
scalar OsgEarthNet.uav[28] utilizationSecMission 887.1741082606
scalar OsgEarthNet.uav[28] utilizationSecMaintenance 181.20511066264
scalar OsgEarthNet.uav[28] utilizationSecCharge 427.01089576068
scalar OsgEarthNet.uav[28] utilizationSecIdle 1786.3502186181
scalar OsgEarthNet.uav[28] utilizationEnergyMission 4067.8059082031
scalar OsgEarthNet.uav[28] utilizationEnergyMaintenance 855.41373825073
scalar OsgEarthNet.uav[28] utilizationEnergyCharge 738.87890625
scalar OsgEarthNet.uav[28] utilizationEnergyOverdrawMission 0
scalar OsgEarthNet.uav[28] utilizationEnergyOverdrawMaintenance 0
scalar OsgEarthNet.uav[28] utilizationCountMissions 1
scalar OsgEarthNet.uav[28] utilizationCountManeuversMission 14
scalar OsgEarthNet.uav[28] utilizationCountManeuversMaintenance 2
scalar OsgEarthNet.uav[28] utilizationCountChargeState 1
scalar OsgEarthNet.uav[28] utilizationCountOverdrawnAfterMission 0
scalar OsgEarthNet.uav[28] utilizationCountIdleState 1
scalar OsgEarthNet.uav[28] utilizationFail 0
scalar OsgEarthNet.uav[28] simulationTime 3281.7413333021
scalar OsgEarthNet.uav[29] utilizationSecMission 760.62515258028
scalar OsgEarthNet.uav[29] utilizationSecMaintenance 202.91610409653
scalar OsgEarthNet.uav[29] utilizationSecCharge 646.05926607385
scalar OsgEarthNet.uav[29] utilizationSecIdle 1672.1398105514
scalar OsgEarthNet.uav[29] utilizationEnergyMission 3398.7928314209
scalar OsgEarthNet.uav[29] utilizationEnergyMaintenance 920.75713348388
scalar OsgEarthNet.uav[29] utilizationEnergyCharge 1138.0826416016
scalar OsgEarthNet.uav[29] utilizationEnergyOverdrawMission 0
scalar OsgEarthNet.uav[29] utilizationEnergyOverdrawMaintenance 0
scalar OsgEarthNet.uav[29] utilizationCountMissions 1
scalar OsgEarthNet.uav[29] utilizationCountManeuversMission 12
scalar OsgEarthNet.uav[29] utilizationCountManeuversMaintenance 2
scalar OsgEarthNet.uav[29] utilizationCountChargeState 1
scalar OsgEarthNet.uav[29] utilizationCountOverdrawnAfterMission 0
scalar OsgEarthNet.uav[29] utilizationCountIdleState 1
scalar OsgEarthNet.uav[29] utilizationFail 0
scalar OsgEarthNet.uav[29] simulationTime 3281.7413333021
scalar OsgEarthNet.uav[30] utilizationSecMission 560
scalar OsgEarthNet.uav[30] utilizationSecMaintenance 447.1303002674
scalar OsgEarthNet.uav[30] utilizationSecCharge 1192.6080330347
scalar OsgEarthNet.uav[30] utilizationSecIdle 1082.002
scalar OsgEarthNet.uav[30] utilizationEnergyMission 2766.1244544983
scalar OsgEarthNet.uav[30] utilizationEnergyMaintenance 2186.4354362488
scalar OsgEarthNet.uav[30] utilizationEnergyCharge 2079.4567871094
scalar OsgEarthNet.uav[30] utilizationEnergyOverdrawMission 0
scalar OsgEarthNet.uav[30] utilizationEnergyOverdrawMaintenance 0
scalar OsgEarthNet.uav[30] utilizationCountMissions 1
scalar OsgEarthNet.uav[30] utilizationCountManeuversMission 28
scalar OsgEarthNet.uav[30] utilizationCountManeuversMaintenance 2
scalar OsgEarthNet.uav[30] utilizationCountChargeState 1
scalar OsgEarthNet.uav[30] utilizationCountOverdrawnAfterMission 0
scalar OsgEarthNet.uav[30] utilizationCountIdleState 1
scalar OsgEarthNet.uav[30] utilizationFail 0
scalar OsgEarthNet.uav[30] simulationTime 3281.7413333021
scalar OsgEarthNet.uav[31] utilizationSecMission 0
scalar OsgEarthNet.uav[31] utilizationSecMaintenance 0
scalar OsgEarthNet.uav[31] utilizationSecCharge 0
scalar OsgEarthNet.uav[31] utilizationSecIdle 3281.7403333021
scalar OsgEarthNet.uav[31] utilizationEnergyMission 0
scalar OsgEarthNet.uav[31] utilizationEnergyMaintenance 0
scalar OsgEarthNet.uav[31] utilizationEnergyCharge 0
scalar OsgEarthNet.uav[31] utilizationEnergyOverdrawMission 0
scalar OsgEarthNet.uav[31] utilizationEnergyOverdrawMaintenance 0
scalar OsgEarthNet.uav[31] utilizationCountMissions 0
scalar OsgEarthNet.uav[31] utilizationCountManeuversMission 0
scalar OsgEarthNet.uav[31] utilizationCountManeuversMaintenance 0
scalar OsgEarthNet.uav[31] utilizationCountChargeState 0
scalar OsgEarthNet.uav[31] utilizationCountOverdrawnAfterMission 0
scalar OsgEarthNet.uav[31] utilizationCountIdleState 1
scalar OsgEarthNet.uav[31] utilizationFail 0
scalar OsgEarthNet.uav[31] simulationTime 3281.7413333021
scalar OsgEarthNet.uav[32] utilizationSecMission 750.20472747826
scalar OsgEarthNet.uav[32] utilizationSecMaintenance 255.5651663541
scalar OsgEarthNet.uav[32] utilizationSecCharge 836.54509217926
scalar OsgEarthNet.uav[32] utilizationSecIdle 1439.4253472904
scalar OsgEarthNet.uav[32] utilizationEnergyMission 3463.4349822998
scalar OsgEarthNet.uav[32] utilizationEnergyMaintenance 1251.044506073
scalar OsgEarthNet.uav[32] utilizationEnergyCharge 1449.3841552734
scalar OsgEarthNet.uav[32] utilizationEnergyOverdrawMission 0
scalar OsgEarthNet.uav[32] utilizationEnergyOverdrawMaintenance 0
scalar OsgEarthNet.uav[32] utilizationCountMissions 1
scalar OsgEarthNet.uav[32] utilizationCountManeuversMission 11
scalar OsgEarthNet.uav[32] utilizationCountManeuversMaintenance 2
scalar OsgEarthNet.uav[32] utilizationCountChargeState 1
scalar OsgEarthNet.uav[32] utilizationCountOverdrawnAfterMission 0
scalar OsgEarthNet.uav[32] utilizationCountIdleState 1
scalar OsgEarthNet.uav[32] utilizationFail 0
scalar OsgEarthNet.uav[32] simulationTime 3281.7413333021
scalar OsgEarthNet.uav[33] utilizationSecMission 0
scalar OsgEarthNet.uav[33] utilizationSecMaintenance 0
scalar OsgEarthNet.uav[33] utilizationSecCharge 0
scalar OsgEarthNet.uav[33] utilizationSecIdle 3281.7403333021
scalar OsgEarthNet.uav[33] utilizationEnergyMission 0
scalar OsgEarthNet.uav[33] utilizationEnergyMaintenance 0
scalar OsgEarthNet.uav[33] utilizationEnergyCharge 0
scalar OsgEarthNet.uav[33] utilizationEnergyOverdrawMission 0
scalar OsgEarthNet.uav[33] utilizationEnergyOverdrawMaintenance 0
scalar OsgEarthNet.uav[33] utilizationCountMissions 0
scalar OsgEarthNet.uav[33] utilizationCountManeuversMission 0
scalar OsgEarthNet.uav[33] utilizationCountManeuversMaintenance 0
scalar OsgEarthNet.uav[33] utilizationCountChargeState 0
scalar OsgEarthNet.uav[33] utilizationCountOverdrawnAfterMission 0
scalar OsgEarthNet.uav[33] utilizationCountIdleState 1
scalar OsgEarthNet.uav[33] utilizationFail 0
scalar OsgEarthNet.uav[33] simulationTime 3281.7413333021
scalar OsgEarthNet.uav[34] utilizationSecMission 620
scalar OsgEarthNet.uav[34] utilizationSecMaintenance 395.21104267299
scalar OsgEarthNet.uav[34] utilizationSecCharge 1064.5272906291
scalar OsgEarthNet.uav[34] utilizationSecIdle 1202.002
scalar OsgEarthNet.uav[34] utilizationEnergyMission 2989.7975616455
scalar OsgEarthNet.uav[34] utilizationEnergyMaintenance 1920.4286003113
scalar OsgEarthNet.uav[34] utilizationEnergyCharge 1844.4904785156
scalar OsgEarthNet.uav[34] utilizationEnergyOverdrawMission 0
scalar OsgEarthNet.uav[34] utilizationEnergyOverdrawMaintenance 0
scalar OsgEarthNet.uav[34] utilizationCountMissions 1
scalar OsgEarthNet.uav[34] utilizationCountManeuversMission 31
scalar OsgEarthNet.uav[34] utilizationCountManeuversMaintenance 2
scalar OsgEarthNet.uav[34] utilizationCountChargeState 1
scalar OsgEarthNet.uav[34] utilizationCountOverdrawnAfterMission 0
scalar OsgEarthNet.uav[34] utilizationCountIdleState 1
scalar OsgEarthNet.uav[34] utilizationFail 0
scalar OsgEarthNet.uav[34] simulationTime 3281.7413333021
scalar OsgEarthNet.uav[35] utilizationSecMission 760
scalar OsgEarthNet.uav[35] utilizationSecMaintenance 262.82841927123
scalar OsgEarthNet.uav[35] utilizationSecCharge 1456.9109140308
scalar OsgEarthNet.uav[35] utilizationSecIdle 802.001
scalar OsgEarthNet.uav[35] utilizationEnergyMission 3647.6886825562
scalar OsgEarthNet.uav[35] utilizationEnergyMaintenance 1029.9327812195
scalar OsgEarthNet.uav[35] utilizationEnergyCharge 2546.7509765625
scalar OsgEarthNet.uav[35] utilizationEnergyOverdrawMission 0
scalar OsgEarthNet.uav[35] utilizationEnergyOverdrawMaintenance 0
scalar OsgEarthNet.uav[35] utilizationCountMissions 1
scalar OsgEarthNet.uav[35] utilizationCountManeuversMission 38
scalar OsgEarthNet.uav[35] utilizationCountManeuversMaintenance 2
scalar OsgEarthNet.uav[35] utilizationCountChargeState 1
scalar OsgEarthNet.uav[35] utilizationCountOverdrawnAfterMission 0
scalar OsgEarthNet.uav[35] utilizationCountIdleState 1
scalar OsgEarthNet.uav[35] utilizationFail 0
scalar OsgEarthNet.uav[35] simulationTime 3281.7413333021
scalar OsgEarthNet.uav[36] utilizationSecMission 580
scalar OsgEarthNet.uav[36] utilizationSecMaintenance 447.1303002674
scalar OsgEarthNet.uav[36] utilizationSecCharge 612.60703303466
scalar OsgEarthNet.uav[36] utilizationSecIdle 1642.003
scalar OsgEarthNet.uav[36] utilizationEnergyMission 2928.534198761
scalar OsgEarthNet.uav[36] utilizationEnergyMaintenance 2192.173412323
scalar OsgEarthNet.uav[36] utilizationEnergyCharge 1071.4177246094
scalar OsgEarthNet.uav[36] utilizationEnergyOverdrawMission 0
scalar OsgEarthNet.uav[36] utilizationEnergyOverdrawMaintenance 0
scalar OsgEarthNet.uav[36] utilizationCountMissions 1
scalar OsgEarthNet.uav[36] utilizationCountManeuversMission 29
scalar OsgEarthNet.uav[36] utilizationCountManeuversMaintenance 2
scalar OsgEarthNet.uav[36] utilizationCountChargeState 1
scalar OsgEarthNet.uav[36] utilizationCountOverdrawnAfterMission 0
scalar OsgEarthNet.uav[36] utilizationCountIdleState 1
scalar OsgEarthNet.uav[36] utilizationFail 0
scalar OsgEarthNet.uav[36] simulationTime 3281.7413333021
scalar OsgEarthNet.uav[37] utilizationSecMission 600
scalar OsgEarthNet.uav[37] utilizationSecMaintenance 395.21104267299
scalar OsgEarthNet.uav[37] utilizationSecCharge 1684.5282906291
scalar OsgEarthNet.uav[37] utilizationSecIdle 602.001
scalar OsgEarthNet.uav[37] utilizationEnergyMission 2952.0487365723
scalar OsgEarthNet.uav[37] utilizationEnergyMaintenance 1893.3194084167
scalar OsgEarthNet.uav[37] utilizationEnergyCharge 2921.7648925781
scalar OsgEarthNet.uav[37] utilizationEnergyOverdrawMission 0
scalar OsgEarthNet.uav[37] utilizationEnergyOverdrawMaintenance 0
scalar OsgEarthNet.uav[37] utilizationCountMissions 1
scalar OsgEarthNet.uav[37] utilizationCountManeuversMission 30
scalar OsgEarthNet.uav[37] utilizationCountManeuversMaintenance 2
scalar OsgEarthNet.uav[37] utilizationCountChargeState 1
scalar OsgEarthNet.uav[37] utilizationCountOverdrawnAfterMission 0
scalar OsgEarthNet.uav[37] utilizationCountIdleState 1
scalar OsgEarthNet.uav[37] utilizationFail 0
scalar OsgEarthNet.uav[37] simulationTime 3281.7413333021
scalar OsgEarthNet.uav[38] utilizationSecMission 694.00169469977
scalar OsgEarthNet.uav[38] utilizationSecMaintenance 338.49695459722
scalar OsgEarthNet.uav[38] utilizationSecCharge 746.53901628751
scalar OsgEarthNet.uav[38] utilizationSecIdle 1502.7026677176
scalar OsgEarthNet.uav[38] utilizationEnergyMission 3237.0793914795
scalar OsgEarthNet.uav[38] utilizationEnergyMaintenance 1582.5094718933
scalar OsgEarthNet.uav[38] utilizationEnergyCharge 1297.3665771484
scalar OsgEarthNet.uav[38] utilizationEnergyOverdrawMission 0
scalar OsgEarthNet.uav[38] utilizationEnergyOverdrawMaintenance 0
scalar OsgEarthNet.uav[38] utilizationCountMissions 1
scalar OsgEarthNet.uav[38] utilizationCountManeuversMission 13
scalar OsgEarthNet.uav[38] utilizationCountManeuversMaintenance 2
scalar OsgEarthNet.uav[38] utilizationCountChargeState 1
scalar OsgEarthNet.uav[38] utilizationCountOverdrawnAfterMission 0
scalar OsgEarthNet.uav[38] utilizationCountIdleState 1
scalar OsgEarthNet.uav[38] utilizationFail 0
scalar OsgEarthNet.uav[38] simulationTime 3281.7413333021
scalar OsgEarthNet.uav[39] utilizationSecMission 0
scalar OsgEarthNet.uav[39] utilizationSecMaintenance 0
scalar OsgEarthNet.uav[39] utilizationSecCharge 0
scalar OsgEarthNet.uav[39] utilizationSecIdle 3281.7403333021
scalar OsgEarthNet.uav[39] utilizationEnergyMission 0
scalar OsgEarthNet.uav[39] utilizationEnergyMaintenance 0
scalar OsgEarthNet.uav[39] utilizationEnergyCharge 0
scalar OsgEarthNet.uav[39] utilizationEnergyOverdrawMission 0
scalar OsgEarthNet.uav[39] utilizationEnergyOverdrawMaintenance 0
scalar OsgEarthNet.uav[39] utilizationCountMissions 0
scalar OsgEarthNet.uav[39] utilizationCountManeuversMission 0
scalar OsgEarthNet.uav[39] utilizationCountManeuversMaintenance 0
scalar OsgEarthNet.uav[39] utilizationCountChargeState 0
scalar OsgEarthNet.uav[39] utilizationCountOverdrawnAfterMission 0
scalar OsgEarthNet.uav[39] utilizationCountIdleState 1
scalar OsgEarthNet.uav[39] utilizationFail 0
scalar OsgEarthNet.uav[39] simulationTime 3281.7413333021
scalar OsgEarthNet.uav[40] utilizationSecMission 0
scalar OsgEarthNet.uav[40] utilizationSecMaintenance 0
scalar OsgEarthNet.uav[40] utilizationSecCharge 0
scalar OsgEarthNet.uav[40] utilizationSecIdle 3281.7403333021
scalar OsgEarthNet.uav[40] utilizationEnergyMission 0
scalar OsgEarthNet.uav[40] utilizationEnergyMaintenance 0
scalar OsgEarthNet.uav[40] utilizationEnergyCharge 0
scalar OsgEarthNet.uav[40] utilizationEnergyOverdrawMission 0
scalar OsgEarthNet.uav[40] utilizationEnergyOverdrawMaintenance 0
scalar OsgEarthNet.uav[40] utilizationCountMissions 0
scalar OsgEarthNet.uav[40] utilizationCountManeuversMission 0
scalar OsgEarthNet.uav[40] utilizationCountManeuversMaintenance 0
scalar OsgEarthNet.uav[40] utilizationCountChargeState 0
scalar OsgEarthNet.uav[40] utilizationCountOverdrawnAfterMission 0
scalar OsgEarthNet.uav[40] utilizationCountIdleState 1
scalar OsgEarthNet.uav[40] utilizationFail 0
scalar OsgEarthNet.uav[40] simulationTime 3281.7413333021
scalar OsgEarthNet.uav[41] utilizationSecMission 0
scalar OsgEarthNet.uav[41] utilizationSecMaintenance 0
scalar OsgEarthNet.uav[41] utilizationSecCharge 0
scalar OsgEarthNet.uav[41] utilizationSecIdle 3281.7403333021
scalar OsgEarthNet.uav[41] utilizationEnergyMission 0
scalar OsgEarthNet.uav[41] utilizationEnergyMaintenance 0
scalar OsgEarthNet.uav[41] utilizationEnergyCharge 0
scalar OsgEarthNet.uav[41] utilizationEnergyOverdrawMission 0
scalar OsgEarthNet.uav[41] utilizationEnergyOverdrawMaintenance 0
scalar OsgEarthNet.uav[41] utilizationCountMissions 0
scalar OsgEarthNet.uav[41] utilizationCountManeuversMission 0
scalar OsgEarthNet.uav[41] utilizationCountManeuversMaintenance 0
scalar OsgEarthNet.uav[41] utilizationCountChargeState 0
scalar OsgEarthNet.uav[41] utilizationCountOverdrawnAfterMission 0
scalar OsgEarthNet.uav[41] utilizationCountIdleState 1
scalar OsgEarthNet.uav[41] utilizationFail 0
scalar OsgEarthNet.uav[41] simulationTime 3281.7413333021
scalar OsgEarthNet.uav[42] utilizationSecMission 766.82734763767
scalar OsgEarthNet.uav[42] utilizationSecMaintenance 306.92101052153
scalar OsgEarthNet.uav[42] utilizationSecCharge 1440.541711112
scalar OsgEarthNet.uav[42] utilizationSecIdle 767.4502640309
scalar OsgEarthNet.uav[42] utilizationEnergyMission 3615.6421279907
scalar OsgEarthNet.uav[42] utilizationEnergyMaintenance 1560.1646957397
scalar OsgEarthNet.uav[42] utilizationEnergyCharge 2513.4162597656
scalar OsgEarthNet.uav[42] utilizationEnergyOverdrawMission 0
scalar OsgEarthNet.uav[42] utilizationEnergyOverdrawMaintenance 0
scalar OsgEarthNet.uav[42] utilizationCountMissions 1
scalar OsgEarthNet.uav[42] utilizationCountManeuversMission 14
scalar OsgEarthNet.uav[42] utilizationCountManeuversMaintenance 2
scalar OsgEarthNet.uav[42] utilizationCountChargeState 1
scalar OsgEarthNet.uav[42] utilizationCountOverdrawnAfterMission 0
scalar OsgEarthNet.uav[42] utilizationCountIdleState 1
scalar OsgEarthNet.uav[42] utilizationFail 0
scalar OsgEarthNet.uav[42] simulationTime 3281.7413333021
scalar OsgEarthNet.uav[43] utilizationSecMission 0
scalar OsgEarthNet.uav[43] utilizationSecMaintenance 0
scalar OsgEarthNet.uav[43] utilizationSecCharge 0
scalar OsgEarthNet.uav[43] utilizationSecIdle 3281.7403333021
scalar OsgEarthNet.uav[43] utilizationEnergyMission 0
scalar OsgEarthNet.uav[43] utilizationEnergyMaintenance 0
scalar OsgEarthNet.uav[43] utilizationEnergyCharge 0
scalar OsgEarthNet.uav[43] utilizationEnergyOverdrawMission 0
scalar OsgEarthNet.uav[43] utilizationEnergyOverdrawMaintenance 0
scalar OsgEarthNet.uav[43] utilizationCountMissions 0
scalar OsgEarthNet.uav[43] utilizationCountManeuversMission 0
scalar OsgEarthNet.uav[43] utilizationCountManeuversMaintenance 0
scalar OsgEarthNet.uav[43] utilizationCountChargeState 0
scalar OsgEarthNet.uav[43] utilizationCountOverdrawnAfterMission 0
scalar OsgEarthNet.uav[43] utilizationCountIdleState 1
scalar OsgEarthNet.uav[43] utilizationFail 0
scalar OsgEarthNet.uav[43] simulationTime 3281.7413333021
scalar OsgEarthNet.uav[44] utilizationSecMission 0
scalar OsgEarthNet.uav[44] utilizationSecMaintenance 0
scalar OsgEarthNet.uav[44] utilizationSecCharge 0
scalar OsgEarthNet.uav[44] utilizationSecIdle 3281.7403333021
scalar OsgEarthNet.uav[44] utilizationEnergyMission 0
scalar OsgEarthNet.uav[44] utilizationEnergyMaintenance 0
scalar OsgEarthNet.uav[44] utilizationEnergyCharge 0
scalar OsgEarthNet.uav[44] utilizationEnergyOverdrawMission 0
scalar OsgEarthNet.uav[44] utilizationEnergyOverdrawMaintenance 0
scalar OsgEarthNet.uav[44] utilizationCountMissions 0
scalar OsgEarthNet.uav[44] utilizationCountManeuversMission 0
scalar OsgEarthNet.uav[44] utilizationCountManeuversMaintenance 0
scalar OsgEarthNet.uav[44] utilizationCountChargeState 0
scalar OsgEarthNet.uav[44] utilizationCountOverdrawnAfterMission 0
scalar OsgEarthNet.uav[44] utilizationCountIdleState 1
scalar OsgEarthNet.uav[44] utilizationFail 0
scalar OsgEarthNet.uav[44] simulationTime 3281.7413333021
scalar OsgEarthNet.uav[45] utilizationSecMission 925.53149703846
scalar OsgEarthNet.uav[45] utilizationSecMaintenance 88.099318807095
scalar OsgEarthNet.uav[45] utilizationSecCharge 2266.1095174565
scalar OsgEarthNet.uav[45] utilizationSecIdle 2
scalar OsgEarthNet.uav[45] utilizationEnergyMission 4331.7592962746
scalar OsgEarthNet.uav[45] utilizationEnergyMaintenance 406.58900070191
scalar OsgEarthNet.uav[45] utilizationEnergyCharge 3940.4763183594
scalar OsgEarthNet.uav[45] utilizationEnergyOverdrawMission 0
scalar OsgEarthNet.uav[45] utilizationEnergyOverdrawMaintenance 0
scalar OsgEarthNet.uav[45] utilizationCountMissions 1
scalar OsgEarthNet.uav[45] utilizationCountManeuversMission 14
scalar OsgEarthNet.uav[45] utilizationCountManeuversMaintenance 1
scalar OsgEarthNet.uav[45] utilizationCountChargeState 1
scalar OsgEarthNet.uav[45] utilizationCountOverdrawnAfterMission 0
scalar OsgEarthNet.uav[45] utilizationCountIdleState 1
scalar OsgEarthNet.uav[45] utilizationFail 0
scalar OsgEarthNet.uav[45] simulationTime 3281.7413333021
scalar OsgEarthNet.uav[46] utilizationSecMission 0
scalar OsgEarthNet.uav[46] utilizationSecMaintenance 0
scalar OsgEarthNet.uav[46] utilizationSecCharge 0
scalar OsgEarthNet.uav[46] utilizationSecIdle 3281.7403333021
scalar OsgEarthNet.uav[46] utilizationEnergyMission 0
scalar OsgEarthNet.uav[46] utilizationEnergyMaintenance 0
scalar OsgEarthNet.uav[46] utilizationEnergyCharge 0
scalar OsgEarthNet.uav[46] utilizationEnergyOverdrawMission 0
scalar OsgEarthNet.uav[46] utilizationEnergyOverdrawMaintenance 0
scalar OsgEarthNet.uav[46] utilizationCountMissions 0
scalar OsgEarthNet.uav[46] utilizationCountManeuversMission 0
scalar OsgEarthNet.uav[46] utilizationCountManeuversMaintenance 0
scalar OsgEarthNet.uav[46] utilizationCountChargeState 0
scalar OsgEarthNet.uav[46] utilizationCountOverdrawnAfterMission 0
scalar OsgEarthNet.uav[46] utilizationCountIdleState 1
scalar OsgEarthNet.uav[46] utilizationFail 0
scalar OsgEarthNet.uav[46] simulationTime 3281.7413333021
scalar OsgEarthNet.uav[47] utilizationSecMission 0
scalar OsgEarthNet.uav[47] utilizationSecMaintenance 0
scalar OsgEarthNet.uav[47] utilizationSecCharge 0
scalar OsgEarthNet.uav[47] utilizationSecIdle 3281.7403333021
scalar OsgEarthNet.uav[47] utilizationEnergyMission 0
scalar OsgEarthNet.uav[47] utilizationEnergyMaintenance 0
scalar OsgEarthNet.uav[47] utilizationEnergyCharge 0
scalar OsgEarthNet.uav[47] utilizationEnergyOverdrawMission 0
scalar OsgEarthNet.uav[47] utilizationEnergyOverdrawMaintenance 0
scalar OsgEarthNet.uav[47] utilizationCountMissions 0
scalar OsgEarthNet.uav[47] utilizationCountManeuversMission 0
scalar OsgEarthNet.uav[47] utilizationCountManeuversMaintenance 0
scalar OsgEarthNet.uav[47] utilizationCountChargeState 0
scalar OsgEarthNet.uav[47] utilizationCountOverdrawnAfterMission 0
scalar OsgEarthNet.uav[47] utilizationCountIdleState 1
scalar OsgEarthNet.uav[47] utilizationFail 0
scalar OsgEarthNet.uav[47] simulationTime 3281.7413333021
scalar OsgEarthNet.uav[48] utilizationSecMission 560
scalar OsgEarthNet.uav[48] utilizationSecMaintenance 390.60696956236
scalar OsgEarthNet.uav[48] utilizationSecCharge 569.1303637397
scalar OsgEarthNet.uav[48] utilizationSecIdle 1762.003
scalar OsgEarthNet.uav[48] utilizationEnergyMission 2853.8587646484
scalar OsgEarthNet.uav[48] utilizationEnergyMaintenance 1827.1604118347
scalar OsgEarthNet.uav[48] utilizationEnergyCharge 986.5126953125
scalar OsgEarthNet.uav[48] utilizationEnergyOverdrawMission 0
scalar OsgEarthNet.uav[48] utilizationEnergyOverdrawMaintenance 0
scalar OsgEarthNet.uav[48] utilizationCountMissions 1
scalar OsgEarthNet.uav[48] utilizationCountManeuversMission 28
scalar OsgEarthNet.uav[48] utilizationCountManeuversMaintenance 2
scalar OsgEarthNet.uav[48] utilizationCountChargeState 1
scalar OsgEarthNet.uav[48] utilizationCountOverdrawnAfterMission 0
scalar OsgEarthNet.uav[48] utilizationCountIdleState 1
scalar OsgEarthNet.uav[48] utilizationFail 0
scalar OsgEarthNet.uav[48] simulationTime 3281.7413333021
scalar OsgEarthNet.uav[49] utilizationSecMission 0
scalar OsgEarthNet.uav[49] utilizationSecMaintenance 0
scalar OsgEarthNet.uav[49] utilizationSecCharge 0
scalar OsgEarthNet.uav[49] utilizationSecIdle 3281.7403333021
scalar OsgEarthNet.uav[49] utilizationEnergyMission 0
scalar OsgEarthNet.uav[49] utilizationEnergyMaintenance 0
scalar OsgEarthNet.uav[49] utilizationEnergyCharge 0
scalar OsgEarthNet.uav[49] utilizationEnergyOverdrawMission 0
scalar OsgEarthNet.uav[49] utilizationEnergyOverdrawMaintenance 0
scalar OsgEarthNet.uav[49] utilizationCountMissions 0
scalar OsgEarthNet.uav[49] utilizationCountManeuversMission 0
scalar OsgEarthNet.uav[49] utilizationCountManeuversMaintenance 0
scalar OsgEarthNet.uav[49] utilizationCountChargeState 0
scalar OsgEarthNet.uav[49] utilizationCountOverdrawnAfterMission 0
scalar OsgEarthNet.uav[49] utilizationCountIdleState 1
scalar OsgEarthNet.uav[49] utilizationFail 0
scalar OsgEarthNet.uav[49] simulationTime 3281.7413333021
scalar OsgEarthNet.uav[50] utilizationSecMission 0
scalar OsgEarthNet.uav[50] utilizationSecMaintenance 0
scalar OsgEarthNet.uav[50] utilizationSecCharge 0
scalar OsgEarthNet.uav[50] utilizationSecIdle 3281.7403333021
scalar OsgEarthNet.uav[50] utilizationEnergyMission 0
scalar OsgEarthNet.uav[50] utilizationEnergyMaintenance 0
scalar OsgEarthNet.uav[50] utilizationEnergyCharge 0
scalar OsgEarthNet.uav[50] utilizationEnergyOverdrawMission 0
scalar OsgEarthNet.uav[50] utilizationEnergyOverdrawMaintenance 0
scalar OsgEarthNet.uav[50] utilizationCountMissions 0
scalar OsgEarthNet.uav[50] utilizationCountManeuversMission 0
scalar OsgEarthNet.uav[50] utilizationCountManeuversMaintenance 0
scalar OsgEarthNet.uav[50] utilizationCountChargeState 0
scalar OsgEarthNet.uav[50] utilizationCountOverdrawnAfterMission 0
scalar OsgEarthNet.uav[50] utilizationCountIdleState 1
scalar OsgEarthNet.uav[50] utilizationFail 0
scalar OsgEarthNet.uav[50] simulationTime 3281.7413333021
scalar OsgEarthNet.uav[51] utilizationSecMission 0
scalar OsgEarthNet.uav[51] utilizationSecMaintenance 0
scalar OsgEarthNet.uav[51] utilizationSecCharge 0
scalar OsgEarthNet.uav[51] utilizationSecIdle 3281.7403333021
scalar OsgEarthNet.uav[51] utilizationEnergyMission 0
scalar OsgEarthNet.uav[51] utilizationEnergyMaintenance 0
scalar OsgEarthNet.uav[51] utilizationEnergyCharge 0
scalar OsgEarthNet.uav[51] utilizationEnergyOverdrawMission 0
scalar OsgEarthNet.uav[51] utilizationEnergyOverdrawMaintenance 0
scalar OsgEarthNet.uav[51] utilizationCountMissions 0
scalar OsgEarthNet.uav[51] utilizationCountManeuversMission 0
scalar OsgEarthNet.uav[51] utilizationCountManeuversMaintenance 0
scalar OsgEarthNet.uav[51] utilizationCountChargeState 0
scalar OsgEarthNet.uav[51] utilizationCountOverdrawnAfterMission 0
scalar OsgEarthNet.uav[51] utilizationCountIdleState 1
scalar OsgEarthNet.uav[51] utilizationFail 0
scalar OsgEarthNet.uav[51] simulationTime 3281.7413333021
scalar OsgEarthNet.uav[52] utilizationSecMission 640
scalar OsgEarthNet.uav[52] utilizationSecMaintenance 319.73633330206
scalar OsgEarthNet.uav[52] utilizationSecCharge 0
scalar OsgEarthNet.uav[52] utilizationSecIdle 2322.004
scalar OsgEarthNet.uav[52] utilizationEnergyMission 3382.5834388733
scalar OsgEarthNet.uav[52] utilizationEnergyMaintenance 1535.8329020701
scalar OsgEarthNet.uav[52] utilizationEnergyCharge 0
scalar OsgEarthNet.uav[52] utilizationEnergyOverdrawMission 0
scalar OsgEarthNet.uav[52] utilizationEnergyOverdrawMaintenance 0
scalar OsgEarthNet.uav[52] utilizationCountMissions 1
scalar OsgEarthNet.uav[52] utilizationCountManeuversMission 32
scalar OsgEarthNet.uav[52] utilizationCountManeuversMaintenance 2
scalar OsgEarthNet.uav[52] utilizationCountChargeState 0
scalar OsgEarthNet.uav[52] utilizationCountOverdrawnAfterMission 0
scalar OsgEarthNet.uav[52] utilizationCountIdleState 1
scalar OsgEarthNet.uav[52] utilizationFail 0
scalar OsgEarthNet.uav[52] simulationTime 3281.7413333021
scalar OsgEarthNet.uav[53] utilizationSecMission 0
scalar OsgEarthNet.uav[53] utilizationSecMaintenance 0
scalar OsgEarthNet.uav[53] utilizationSecCharge 0
scalar OsgEarthNet.uav[53] utilizationSecIdle 3281.7403333021
scalar OsgEarthNet.uav[53] utilizationEnergyMission 0
scalar OsgEarthNet.uav[53] utilizationEnergyMaintenance 0
scalar OsgEarthNet.uav[53] utilizationEnergyCharge 0
scalar OsgEarthNet.uav[53] utilizationEnergyOverdrawMission 0
scalar OsgEarthNet.uav[53] utilizationEnergyOverdrawMaintenance 0
scalar OsgEarthNet.uav[53] utilizationCountMissions 0
scalar OsgEarthNet.uav[53] utilizationCountManeuversMission 0
scalar OsgEarthNet.uav[53] utilizationCountManeuversMaintenance 0
scalar OsgEarthNet.uav[53] utilizationCountChargeState 0
scalar OsgEarthNet.uav[53] utilizationCountOverdrawnAfterMission 0
scalar OsgEarthNet.uav[53] utilizationCountIdleState 1
scalar OsgEarthNet.uav[53] utilizationFail 0
scalar OsgEarthNet.uav[53] simulationTime 3281.7413333021
scalar OsgEarthNet.uav[54] utilizationSecMission 0
scalar OsgEarthNet.uav[54] utilizationSecMaintenance 0
scalar OsgEarthNet.uav[54] utilizationSecCharge 0
scalar OsgEarthNet.uav[54] utilizationSecIdle 3281.7403333021
scalar OsgEarthNet.uav[54] utilizationEnergyMission 0
scalar OsgEarthNet.uav[54] utilizationEnergyMaintenance 0
scalar OsgEarthNet.uav[54] utilizationEnergyCharge 0
scalar OsgEarthNet.uav[54] utilizationEnergyOverdrawMission 0
scalar OsgEarthNet.uav[54] utilizationEnergyOverdrawMaintenance 0
scalar OsgEarthNet.uav[54] utilizationCountMissions 0
scalar OsgEarthNet.uav[54] utilizationCountManeuversMission 0
scalar OsgEarthNet.uav[54] utilizationCountManeuversMaintenance 0
scalar OsgEarthNet.uav[54] utilizationCountChargeState 0
scalar OsgEarthNet.uav[54] utilizationCountOverdrawnAfterMission 0
scalar OsgEarthNet.uav[54] utilizationCountIdleState 1
scalar OsgEarthNet.uav[54] utilizationFail 0
scalar OsgEarthNet.uav[54] simulationTime 3281.7413333021
scalar OsgEarthNet.uav[55] utilizationSecMission 527.36538522837
scalar OsgEarthNet.uav[55] utilizationSecMaintenance 80.849619044829
scalar OsgEarthNet.uav[55] utilizationSecCharge 0
scalar OsgEarthNet.uav[55] utilizationSecIdle 2673.5253290289
scalar OsgEarthNet.uav[55] utilizationEnergyMission 2557.2440087039
scalar OsgEarthNet.uav[55] utilizationEnergyMaintenance 425.94900512695
scalar OsgEarthNet.uav[55] utilizationEnergyCharge 0
scalar OsgEarthNet.uav[55] utilizationEnergyOverdrawMission 0
scalar OsgEarthNet.uav[55] utilizationEnergyOverdrawMaintenance 0
scalar OsgEarthNet.uav[55] utilizationCountMissions 0
scalar OsgEarthNet.uav[55] utilizationCountManeuversMission 9
scalar OsgEarthNet.uav[55] utilizationCountManeuversMaintenance 1
scalar OsgEarthNet.uav[55] utilizationCountChargeState 0
scalar OsgEarthNet.uav[55] utilizationCountOverdrawnAfterMission 0
scalar OsgEarthNet.uav[55] utilizationCountIdleState 1
scalar OsgEarthNet.uav[55] utilizationFail 0
scalar OsgEarthNet.uav[55] simulationTime 3281.7413333021
scalar OsgEarthNet.uav[56] utilizationSecMission 0
scalar OsgEarthNet.uav[56] utilizationSecMaintenance 0
scalar OsgEarthNet.uav[56] utilizationSecCharge 0
scalar OsgEarthNet.uav[56] utilizationSecIdle 3281.7403333021
scalar OsgEarthNet.uav[56] utilizationEnergyMission 0
scalar OsgEarthNet.uav[56] utilizationEnergyMaintenance 0
scalar OsgEarthNet.uav[56] utilizationEnergyCharge 0
scalar OsgEarthNet.uav[56] utilizationEnergyOverdrawMission 0
scalar OsgEarthNet.uav[56] utilizationEnergyOverdrawMaintenance 0
scalar OsgEarthNet.uav[56] utilizationCountMissions 0
scalar OsgEarthNet.uav[56] utilizationCountManeuversMission 0
scalar OsgEarthNet.uav[56] utilizationCountManeuversMaintenance 0
scalar OsgEarthNet.uav[56] utilizationCountChargeState 0
scalar OsgEarthNet.uav[56] utilizationCountOverdrawnAfterMission 0
scalar OsgEarthNet.uav[56] utilizationCountIdleState 1
scalar OsgEarthNet.uav[56] utilizationFail 0
scalar OsgEarthNet.uav[56] simulationTime 3281.7413333021
scalar OsgEarthNet.uav[57] utilizationSecMission 0
scalar OsgEarthNet.uav[57] utilizationSecMaintenance 0
scalar OsgEarthNet.uav[57] utilizationSecCharge 0
scalar OsgEarthNet.uav[57] utilizationSecIdle 3281.7403333021
scalar OsgEarthNet.uav[57] utilizationEnergyMission 0
scalar OsgEarthNet.uav[57] utilizationEnergyMaintenance 0
scalar OsgEarthNet.uav[57] utilizationEnergyCharge 0
scalar OsgEarthNet.uav[57] utilizationEnergyOverdrawMission 0
scalar OsgEarthNet.uav[57] utilizationEnergyOverdrawMaintenance 0
scalar OsgEarthNet.uav[57] utilizationCountMissions 0
scalar OsgEarthNet.uav[57] utilizationCountManeuversMission 0
scalar OsgEarthNet.uav[57] utilizationCountManeuversMaintenance 0
scalar OsgEarthNet.uav[57] utilizationCountChargeState 0
scalar OsgEarthNet.uav[57] utilizationCountOverdrawnAfterMission 0
scalar OsgEarthNet.uav[57] utilizationCountIdleState 1
scalar OsgEarthNet.uav[57] utilizationFail 0
scalar OsgEarthNet.uav[57] simulationTime 3281.7413333021
scalar OsgEarthNet.uav[58] utilizationSecMission 143.91404820885
scalar OsgEarthNet.uav[58] utilizationSecMaintenance 167.91014254661
scalar OsgEarthNet.uav[58] utilizationSecCharge 0
scalar OsgEarthNet.uav[58] utilizationSecIdle 2969.9161425466
scalar OsgEarthNet.uav[58] utilizationEnergyMission 705.48089520535
scalar OsgEarthNet.uav[58] utilizationEnergyMaintenance 772.53851318359
scalar OsgEarthNet.uav[58] utilizationEnergyCharge 0
scalar OsgEarthNet.uav[58] utilizationEnergyOverdrawMission 0
scalar OsgEarthNet.uav[58] utilizationEnergyOverdrawMaintenance 0
scalar OsgEarthNet.uav[58] utilizationCountMissions 0
scalar OsgEarthNet.uav[58] utilizationCountManeuversMission 8
scalar OsgEarthNet.uav[58] utilizationCountManeuversMaintenance 1
scalar OsgEarthNet.uav[58] utilizationCountChargeState 0
scalar OsgEarthNet.uav[58] utilizationCountOverdrawnAfterMission 0
scalar OsgEarthNet.uav[58] utilizationCountIdleState 1
scalar OsgEarthNet.uav[58] utilizationFail 0
scalar OsgEarthNet.uav[58] simulationTime 3281.7413333021
scalar OsgEarthNet.uav[59] utilizationSecMission 0
scalar OsgEarthNet.uav[59] utilizationSecMaintenance 0
scalar OsgEarthNet.uav[59] utilizationSecCharge 0
scalar OsgEarthNet.uav[59] utilizationSecIdle 3281.7403333021
scalar OsgEarthNet.uav[59] utilizationEnergyMission 0
scalar OsgEarthNet.uav[59] utilizationEnergyMaintenance 0
scalar OsgEarthNet.uav[59] utilizationEnergyCharge 0
scalar OsgEarthNet.uav[59] utilizationEnergyOverdrawMission 0
scalar OsgEarthNet.uav[59] utilizationEnergyOverdrawMaintenance 0
scalar OsgEarthNet.uav[59] utilizationCountMissions 0
scalar OsgEarthNet.uav[59] utilizationCountManeuversMission 0
scalar OsgEarthNet.uav[59] utilizationCountManeuversMaintenance 0
scalar OsgEarthNet.uav[59] utilizationCountChargeState 0
scalar OsgEarthNet.uav[59] utilizationCountOverdrawnAfterMission 0
scalar OsgEarthNet.uav[59] utilizationCountIdleState 1
scalar OsgEarthNet.uav[59] utilizationFail 0
scalar OsgEarthNet.uav[59] simulationTime 3281.7413333021
scalar OsgEarthNet.uav[60] utilizationSecMission 0
scalar OsgEarthNet.uav[60] utilizationSecMaintenance 0
scalar OsgEarthNet.uav[60] utilizationSecCharge 0
scalar OsgEarthNet.uav[60] utilizationSecIdle 3281.7403333021
scalar OsgEarthNet.uav[60] utilizationEnergyMission 0
scalar OsgEarthNet.uav[60] utilizationEnergyMaintenance 0
scalar OsgEarthNet.uav[60] utilizationEnergyCharge 0
scalar OsgEarthNet.uav[60] utilizationEnergyOverdrawMission 0
scalar OsgEarthNet.uav[60] utilizationEnergyOverdrawMaintenance 0
scalar OsgEarthNet.uav[60] utilizationCountMissions 0
scalar OsgEarthNet.uav[60] utilizationCountManeuversMission 0
scalar OsgEarthNet.uav[60] utilizationCountManeuversMaintenance 0
scalar OsgEarthNet.uav[60] utilizationCountChargeState 0
scalar OsgEarthNet.uav[60] utilizationCountOverdrawnAfterMission 0
scalar OsgEarthNet.uav[60] utilizationCountIdleState 1
scalar OsgEarthNet.uav[60] utilizationFail 0
scalar OsgEarthNet.uav[60] simulationTime 3281.7413333021
scalar OsgEarthNet.uav[61] utilizationSecMission 15.317072078676
scalar OsgEarthNet.uav[61] utilizationSecMaintenance 144.41826122339
scalar OsgEarthNet.uav[61] utilizationSecCharge 0
scalar OsgEarthNet.uav[61] utilizationSecIdle 3122.005
scalar OsgEarthNet.uav[61] utilizationEnergyMission 101.5631657087
scalar OsgEarthNet.uav[61] utilizationEnergyMaintenance 762.31774902344
scalar OsgEarthNet.uav[61] utilizationEnergyCharge 0
scalar OsgEarthNet.uav[61] utilizationEnergyOverdrawMission 0
scalar OsgEarthNet.uav[61] utilizationEnergyOverdrawMaintenance 0
scalar OsgEarthNet.uav[61] utilizationCountMissions 0
scalar OsgEarthNet.uav[61] utilizationCountManeuversMission 1
scalar OsgEarthNet.uav[61] utilizationCountManeuversMaintenance 1
scalar OsgEarthNet.uav[61] utilizationCountChargeState 0
scalar OsgEarthNet.uav[61] utilizationCountOverdrawnAfterMission 0
scalar OsgEarthNet.uav[61] utilizationCountIdleState 1
scalar OsgEarthNet.uav[61] utilizationFail 0
scalar OsgEarthNet.uav[61] simulationTime 3281.7413333021
scalar OsgEarthNet.uav[62] utilizationSecMission 600
scalar OsgEarthNet.uav[62] utilizationSecMaintenance 390.60696956236
scalar OsgEarthNet.uav[62] utilizationSecCharge 2289.1333637397
scalar OsgEarthNet.uav[62] utilizationSecIdle 2
scalar OsgEarthNet.uav[62] utilizationEnergyMission 3030.5736083984
scalar OsgEarthNet.uav[62] utilizationEnergyMaintenance 1730.9289054871
scalar OsgEarthNet.uav[62] utilizationEnergyCharge 3973.8088378906
scalar OsgEarthNet.uav[62] utilizationEnergyOverdrawMission 0
scalar OsgEarthNet.uav[62] utilizationEnergyOverdrawMaintenance 0
scalar OsgEarthNet.uav[62] utilizationCountMissions 1
scalar OsgEarthNet.uav[62] utilizationCountManeuversMission 30
scalar OsgEarthNet.uav[62] utilizationCountManeuversMaintenance 2
scalar OsgEarthNet.uav[62] utilizationCountChargeState 1
scalar OsgEarthNet.uav[62] utilizationCountOverdrawnAfterMission 0
scalar OsgEarthNet.uav[62] utilizationCountIdleState 1
scalar OsgEarthNet.uav[62] utilizationFail 0
scalar OsgEarthNet.uav[62] simulationTime 3281.7413333021
scalar OsgEarthNet.uav[63] utilizationSecMission 0
scalar OsgEarthNet.uav[63] utilizationSecMaintenance 0
scalar OsgEarthNet.uav[63] utilizationSecCharge 0
scalar OsgEarthNet.uav[63] utilizationSecIdle 3281.7403333021
scalar OsgEarthNet.uav[63] utilizationEnergyMission 0
scalar OsgEarthNet.uav[63] utilizationEnergyMaintenance 0
scalar OsgEarthNet.uav[63] utilizationEnergyCharge 0
scalar OsgEarthNet.uav[63] utilizationEnergyOverdrawMission 0
scalar OsgEarthNet.uav[63] utilizationEnergyOverdrawMaintenance 0
scalar OsgEarthNet.uav[63] utilizationCountMissions 0
scalar OsgEarthNet.uav[63] utilizationCountManeuversMission 0
scalar OsgEarthNet.uav[63] utilizationCountManeuversMaintenance 0
scalar OsgEarthNet.uav[63] utilizationCountChargeState 0
scalar OsgEarthNet.uav[63] utilizationCountOverdrawnAfterMission 0
scalar OsgEarthNet.uav[63] utilizationCountIdleState 1
scalar OsgEarthNet.uav[63] utilizationFail 0
scalar OsgEarthNet.uav[63] simulationTime 3281.7413333021
scalar OsgEarthNet.uav[64] utilizationSecMission 0
scalar OsgEarthNet.uav[64] utilizationSecMaintenance 0
scalar OsgEarthNet.uav[64] utilizationSecCharge 0
scalar OsgEarthNet.uav[64] utilizationSecIdle 3281.7403333021
scalar OsgEarthNet.uav[64] utilizationEnergyMission 0
scalar OsgEarthNet.uav[64] utilizationEnergyMaintenance 0
scalar OsgEarthNet.uav[64] utilizationEnergyCharge 0
scalar OsgEarthNet.uav[64] utilizationEnergyOverdrawMission 0
scalar OsgEarthNet.uav[64] utilizationEnergyOverdrawMaintenance 0
scalar OsgEarthNet.uav[64] utilizationCountMissions 0
scalar OsgEarthNet.uav[64] utilizationCountManeuversMission 0
scalar OsgEarthNet.uav[64] utilizationCountManeuversMaintenance 0
scalar OsgEarthNet.uav[64] utilizationCountChargeState 0
scalar OsgEarthNet.uav[64] utilizationCountOverdrawnAfterMission 0
scalar OsgEarthNet.uav[64] utilizationCountIdleState 1
scalar OsgEarthNet.uav[64] utilizationFail 0
scalar OsgEarthNet.uav[64] simulationTime 3281.7413333021
scalar OsgEarthNet.uav[65] utilizationSecMission 634.1877382342
scalar OsgEarthNet.uav[65] utilizationSecMaintenance 398.43056491798
scalar OsgEarthNet.uav[65] utilizationSecCharge 271.24710280436
scalar OsgEarthNet.uav[65] utilizationSecIdle 1977.8749273455
scalar OsgEarthNet.uav[65] utilizationEnergyMission 2892.8413391113
scalar OsgEarthNet.uav[65] utilizationEnergyMaintenance 1796.1272087097
scalar OsgEarthNet.uav[65] utilizationEnergyCharge 455.82550048828
scalar OsgEarthNet.uav[65] utilizationEnergyOverdrawMission 0
scalar OsgEarthNet.uav[65] utilizationEnergyOverdrawMaintenance 0
scalar OsgEarthNet.uav[65] utilizationCountMissions 1
scalar OsgEarthNet.uav[65] utilizationCountManeuversMission 9
scalar OsgEarthNet.uav[65] utilizationCountManeuversMaintenance 2
scalar OsgEarthNet.uav[65] utilizationCountChargeState 1
scalar OsgEarthNet.uav[65] utilizationCountOverdrawnAfterMission 0
scalar OsgEarthNet.uav[65] utilizationCountIdleState 1
scalar OsgEarthNet.uav[65] utilizationFail 0
scalar OsgEarthNet.uav[65] simulationTime 3281.7413333021
scalar OsgEarthNet.uav[66] utilizationSecMission 0
scalar OsgEarthNet.uav[66] utilizationSecMaintenance 0
scalar OsgEarthNet.uav[66] utilizationSecCharge 0
scalar OsgEarthNet.uav[66] utilizationSecIdle 3281.7403333021
scalar OsgEarthNet.uav[66] utilizationEnergyMission 0
scalar OsgEarthNet.uav[66] utilizationEnergyMaintenance 0
scalar OsgEarthNet.uav[66] utilizationEnergyCharge 0
scalar OsgEarthNet.uav[66] utilizationEnergyOverdrawMission 0
scalar OsgEarthNet.uav[66] utilizationEnergyOverdrawMaintenance 0
scalar OsgEarthNet.uav[66] utilizationCountMissions 0
scalar OsgEarthNet.uav[66] utilizationCountManeuversMission 0
scalar OsgEarthNet.uav[66] utilizationCountManeuversMaintenance 0
scalar OsgEarthNet.uav[66] utilizationCountChargeState 0
scalar OsgEarthNet.uav[66] utilizationCountOverdrawnAfterMission 0
scalar OsgEarthNet.uav[66] utilizationCountIdleState 1
scalar OsgEarthNet.uav[66] utilizationFail 0
scalar OsgEarthNet.uav[66] simulationTime 3281.7413333021
scalar OsgEarthNet.uav[67] utilizationSecMission 720
scalar OsgEarthNet.uav[67] utilizationSecMaintenance 395.21104267299
scalar OsgEarthNet.uav[67] utilizationSecCharge 344.52629062907
scalar OsgEarthNet.uav[67] utilizationSecIdle 1822.003
scalar OsgEarthNet.uav[67] utilizationEnergyMission 3489.2308044434
scalar OsgEarthNet.uav[67] utilizationEnergyMaintenance 1884.3994255066
scalar OsgEarthNet.uav[67] utilizationEnergyCharge 572.49188232422
scalar OsgEarthNet.uav[67] utilizationEnergyOverdrawMission 0
scalar OsgEarthNet.uav[67] utilizationEnergyOverdrawMaintenance 0
scalar OsgEarthNet.uav[67] utilizationCountMissions 1
scalar OsgEarthNet.uav[67] utilizationCountManeuversMission 36
scalar OsgEarthNet.uav[67] utilizationCountManeuversMaintenance 2
scalar OsgEarthNet.uav[67] utilizationCountChargeState 1
scalar OsgEarthNet.uav[67] utilizationCountOverdrawnAfterMission 0
scalar OsgEarthNet.uav[67] utilizationCountIdleState 1
scalar OsgEarthNet.uav[67] utilizationFail 0
scalar OsgEarthNet.uav[67] simulationTime 3281.7413333021
scalar OsgEarthNet.uav[68] utilizationSecMission 0
scalar OsgEarthNet.uav[68] utilizationSecMaintenance 0
scalar OsgEarthNet.uav[68] utilizationSecCharge 0
scalar OsgEarthNet.uav[68] utilizationSecIdle 3281.7403333021
scalar OsgEarthNet.uav[68] utilizationEnergyMission 0
scalar OsgEarthNet.uav[68] utilizationEnergyMaintenance 0
scalar OsgEarthNet.uav[68] utilizationEnergyCharge 0
scalar OsgEarthNet.uav[68] utilizationEnergyOverdrawMission 0
[...]
scalar OsgEarthNet.uav[80] utilizationCountOverdrawnAfterMission 0
scalar OsgEarthNet.uav[80] utilizationCountIdleState 1
scalar OsgEarthNet.uav[80] utilizationFail 0
scalar OsgEarthNet.uav[80] simulationTime 3281.7413333021
scalar OsgEarthNet.uav[81] utilizationSecMission 0
scalar OsgEarthNet.uav[81] utilizationSecMaintenance 0
scalar OsgEarthNet.uav[81] utilizationSecCharge 0
scalar OsgEarthNet.uav[81] utilizationSecIdle 3281.7403333021
scalar OsgEarthNet.uav[81] utilizationEnergyMission 0
scalar OsgEarthNet.uav[81] utilizationEnergyMaintenance 0
scalar OsgEarthNet.uav[81] utilizationEnergyCharge 0
scalar OsgEarthNet.uav[81] utilizationEnergyOverdrawMission 0
scalar OsgEarthNet.uav[81] utilizationEnergyOverdrawMaintenance 0
scalar OsgEarthNet.uav[81] utilizationCountMissions 0
scalar OsgEarthNet.uav[81] utilizationCountManeuversMission 0
scalar OsgEarthNet.uav[81] utilizationCountManeuversMaintenance 0
scalar OsgEarthNet.uav[81] utilizationCountChargeState 0
scalar OsgEarthNet.uav[81] utilizationCountOverdrawnAfterMission 0
scalar OsgEarthNet.uav[81] utilizationCountIdleState 1
scalar OsgEarthNet.uav[81] utilizationFail 0
scalar OsgEarthNet.uav[81] simulationTime 3281.7413333021
scalar OsgEarthNet.uav[82] utilizationSecMission 929.66633852757
scalar OsgEarthNet.uav[82] utilizationSecMaintenance 183.39004742748
scalar OsgEarthNet.uav[82] utilizationSecCharge 1314.1860061714
scalar OsgEarthNet.uav[82] utilizationSecIdle 854.49794117561
scalar OsgEarthNet.uav[82] utilizationEnergyMission 4154.4991149902
scalar OsgEarthNet.uav[82] utilizationEnergyMaintenance 871.15621185303
scalar OsgEarthNet.uav[82] utilizationEnergyCharge 2290.4038085938
scalar OsgEarthNet.uav[82] utilizationEnergyOverdrawMission 0
scalar OsgEarthNet.uav[82] utilizationEnergyOverdrawMaintenance 0
scalar OsgEarthNet.uav[82] utilizationCountMissions 1
scalar OsgEarthNet.uav[82] utilizationCountManeuversMission 15
scalar OsgEarthNet.uav[82] utilizationCountManeuversMaintenance 2
scalar OsgEarthNet.uav[82] utilizationCountChargeState 1
scalar OsgEarthNet.uav[82] utilizationCountOverdrawnAfterMission 0
scalar OsgEarthNet.uav[82] utilizationCountIdleState 1
scalar OsgEarthNet.uav[82] utilizationFail 0
scalar OsgEarthNet.uav[82] simulationTime 3281.7413333021
scalar OsgEarthNet.uav[83] utilizationSecMission 0
scalar OsgEarthNet.uav[83] utilizationSecMaintenance 0
scalar OsgEarthNet.uav[83] utilizationSecCharge 0
scalar OsgEarthNet.uav[83] utilizationSecIdle 3281.7403333021
scalar OsgEarthNet.uav[83] utilizationEnergyMission 0
scalar OsgEarthNet.uav[83] utilizationEnergyMaintenance 0
scalar OsgEarthNet.uav[83] utilizationEnergyCharge 0
scalar OsgEarthNet.uav[83] utilizationEnergyOverdrawMission 0
scalar OsgEarthNet.uav[83] utilizationEnergyOverdrawMaintenance 0
scalar OsgEarthNet.uav[83] utilizationCountMissions 0
scalar OsgEarthNet.uav[83] utilizationCountManeuversMission 0
scalar OsgEarthNet.uav[83] utilizationCountManeuversMaintenance 0
scalar OsgEarthNet.uav[83] utilizationCountChargeState 0
scalar OsgEarthNet.uav[83] utilizationCountOverdrawnAfterMission 0
scalar OsgEarthNet.uav[83] utilizationCountIdleState 1
scalar OsgEarthNet.uav[83] utilizationFail 0
scalar OsgEarthNet.uav[83] simulationTime 3281.7413333021
scalar OsgEarthNet.uav[84] utilizationSecMission 0
scalar OsgEarthNet.uav[84] utilizationSecMaintenance 0
scalar OsgEarthNet.uav[84] utilizationSecCharge 0
scalar OsgEarthNet.uav[84] utilizationSecIdle 3281.7403333021
scalar OsgEarthNet.uav[84] utilizationEnergyMission 0
scalar OsgEarthNet.uav[84] utilizationEnergyMaintenance 0
scalar OsgEarthNet.uav[84] utilizationEnergyCharge 0
scalar OsgEarthNet.uav[84] utilizationEnergyOverdrawMission 0
scalar OsgEarthNet.uav[84] utilizationEnergyOverdrawMaintenance 0
scalar OsgEarthNet.uav[84] utilizationCountMissions 0
scalar OsgEarthNet.uav[84] utilizationCountManeuversMission 0
scalar OsgEarthNet.uav[84] utilizationCountManeuversMaintenance 0
scalar OsgEarthNet.uav[84] utilizationCountChargeState 0
scalar OsgEarthNet.uav[84] utilizationCountOverdrawnAfterMission 0
scalar OsgEarthNet.uav[84] utilizationCountIdleState 1
scalar OsgEarthNet.uav[84] utilizationFail 0
scalar OsgEarthNet.uav[84] simulationTime 3281.7413333021
scalar OsgEarthNet.uav[85] utilizationSecMission 220.19300109552
scalar OsgEarthNet.uav[85] utilizationSecMaintenance 121.71051816654
scalar OsgEarthNet.uav[85] utilizationSecCharge 0
scalar OsgEarthNet.uav[85] utilizationSecIdle 2939.83681404
scalar OsgEarthNet.uav[85] utilizationEnergyMission 1063.2171053559
scalar OsgEarthNet.uav[85] utilizationEnergyMaintenance 528.24877929687
scalar OsgEarthNet.uav[85] utilizationEnergyCharge 0
scalar OsgEarthNet.uav[85] utilizationEnergyOverdrawMission 0
scalar OsgEarthNet.uav[85] utilizationEnergyOverdrawMaintenance 0
scalar OsgEarthNet.uav[85] utilizationCountMissions 0
scalar OsgEarthNet.uav[85] utilizationCountManeuversMission 4
scalar OsgEarthNet.uav[85] utilizationCountManeuversMaintenance 1
scalar OsgEarthNet.uav[85] utilizationCountChargeState 0
scalar OsgEarthNet.uav[85] utilizationCountOverdrawnAfterMission 0
scalar OsgEarthNet.uav[85] utilizationCountIdleState 1
scalar OsgEarthNet.uav[85] utilizationFail 0
scalar OsgEarthNet.uav[85] simulationTime 3281.7413333021
scalar OsgEarthNet.uav[86] utilizationSecMission 520
scalar OsgEarthNet.uav[86] utilizationSecMaintenance 447.1303002674
scalar OsgEarthNet.uav[86] utilizationSecCharge 2312.6100330347
scalar OsgEarthNet.uav[86] utilizationSecIdle 2
scalar OsgEarthNet.uav[86] utilizationEnergyMission 2776.0695495605
scalar OsgEarthNet.uav[86] utilizationEnergyMaintenance 2167.9875602722
scalar OsgEarthNet.uav[86] utilizationEnergyCharge 4017.1520996094
scalar OsgEarthNet.uav[86] utilizationEnergyOverdrawMission 0
scalar OsgEarthNet.uav[86] utilizationEnergyOverdrawMaintenance 0
scalar OsgEarthNet.uav[86] utilizationCountMissions 1
scalar OsgEarthNet.uav[86] utilizationCountManeuversMission 26
scalar OsgEarthNet.uav[86] utilizationCountManeuversMaintenance 2
scalar OsgEarthNet.uav[86] utilizationCountChargeState 1
scalar OsgEarthNet.uav[86] utilizationCountOverdrawnAfterMission 0
scalar OsgEarthNet.uav[86] utilizationCountIdleState 1
scalar OsgEarthNet.uav[86] utilizationFail 0
scalar OsgEarthNet.uav[86] simulationTime 3281.7413333021
scalar OsgEarthNet.uav[87] utilizationSecMission 528.55000878666
scalar OsgEarthNet.uav[87] utilizationSecMaintenance 413.64453676047
scalar OsgEarthNet.uav[87] utilizationSecCharge 848.58280142071
scalar OsgEarthNet.uav[87] utilizationSecIdle 1490.9629863342
scalar OsgEarthNet.uav[87] utilizationEnergyMission 2577.5562438965
scalar OsgEarthNet.uav[87] utilizationEnergyMaintenance 2049.3603134155
scalar OsgEarthNet.uav[87] utilizationEnergyCharge 1466.0509033203
scalar OsgEarthNet.uav[87] utilizationEnergyOverdrawMission 0
scalar OsgEarthNet.uav[87] utilizationEnergyOverdrawMaintenance 0
scalar OsgEarthNet.uav[87] utilizationCountMissions 1
scalar OsgEarthNet.uav[87] utilizationCountManeuversMission 10
scalar OsgEarthNet.uav[87] utilizationCountManeuversMaintenance 2
scalar OsgEarthNet.uav[87] utilizationCountChargeState 1
scalar OsgEarthNet.uav[87] utilizationCountOverdrawnAfterMission 0
scalar OsgEarthNet.uav[87] utilizationCountIdleState 1
scalar OsgEarthNet.uav[87] utilizationFail 0
scalar OsgEarthNet.uav[87] simulationTime 3281.7413333021
scalar OsgEarthNet.uav[88] utilizationSecMission 191.09057443656
scalar OsgEarthNet.uav[88] utilizationSecMaintenance 124.32237943275
scalar OsgEarthNet.uav[88] utilizationSecCharge 0
scalar OsgEarthNet.uav[88] utilizationSecIdle 2966.3273794327
scalar OsgEarthNet.uav[88] utilizationEnergyMission 751.4534701163
scalar OsgEarthNet.uav[88] utilizationEnergyMaintenance 610.90356445313
scalar OsgEarthNet.uav[88] utilizationEnergyCharge 0
scalar OsgEarthNet.uav[88] utilizationEnergyOverdrawMission 0
scalar OsgEarthNet.uav[88] utilizationEnergyOverdrawMaintenance 0
scalar OsgEarthNet.uav[88] utilizationCountMissions 0
scalar OsgEarthNet.uav[88] utilizationCountManeuversMission 10
scalar OsgEarthNet.uav[88] utilizationCountManeuversMaintenance 1
scalar OsgEarthNet.uav[88] utilizationCountChargeState 0
scalar OsgEarthNet.uav[88] utilizationCountOverdrawnAfterMission 0
scalar OsgEarthNet.uav[88] utilizationCountIdleState 1
scalar OsgEarthNet.uav[88] utilizationFail 0
scalar OsgEarthNet.uav[88] simulationTime 3281.7413333021
scalar OsgEarthNet.uav[89] utilizationSecMission 0
scalar OsgEarthNet.uav[89] utilizationSecMaintenance 0
scalar OsgEarthNet.uav[89] utilizationSecCharge 0
scalar OsgEarthNet.uav[89] utilizationSecIdle 3281.7403333021
scalar OsgEarthNet.uav[89] utilizationEnergyMission 0
scalar OsgEarthNet.uav[89] utilizationEnergyMaintenance 0
scalar OsgEarthNet.uav[89] utilizationEnergyCharge 0
scalar OsgEarthNet.uav[89] utilizationEnergyOverdrawMission 0
scalar OsgEarthNet.uav[89] utilizationEnergyOverdrawMaintenance 0
scalar OsgEarthNet.uav[89] utilizationCountMissions 0
scalar OsgEarthNet.uav[89] utilizationCountManeuversMission 0
scalar OsgEarthNet.uav[89] utilizationCountManeuversMaintenance 0
scalar OsgEarthNet.uav[89] utilizationCountChargeState 0
scalar OsgEarthNet.uav[89] utilizationCountOverdrawnAfterMission 0
scalar OsgEarthNet.uav[89] utilizationCountIdleState 1
scalar OsgEarthNet.uav[89] utilizationFail 0
scalar OsgEarthNet.uav[89] simulationTime 3281.7413333021
scalar OsgEarthNet.uav[90] utilizationSecMission 0
scalar OsgEarthNet.uav[90] utilizationSecMaintenance 0
scalar OsgEarthNet.uav[90] utilizationSecCharge 0
scalar OsgEarthNet.uav[90] utilizationSecIdle 3281.7403333021
scalar OsgEarthNet.uav[90] utilizationEnergyMission 0
scalar OsgEarthNet.uav[90] utilizationEnergyMaintenance 0
scalar OsgEarthNet.uav[90] utilizationEnergyCharge 0
scalar OsgEarthNet.uav[90] utilizationEnergyOverdrawMission 0
scalar OsgEarthNet.uav[90] utilizationEnergyOverdrawMaintenance 0
scalar OsgEarthNet.uav[90] utilizationCountMissions 0
scalar OsgEarthNet.uav[90] utilizationCountManeuversMission 0
scalar OsgEarthNet.uav[90] utilizationCountManeuversMaintenance 0
scalar OsgEarthNet.uav[90] utilizationCountChargeState 0
scalar OsgEarthNet.uav[90] utilizationCountOverdrawnAfterMission 0
scalar OsgEarthNet.uav[90] utilizationCountIdleState 1
scalar OsgEarthNet.uav[90] utilizationFail 0
scalar OsgEarthNet.uav[90] simulationTime 3281.7413333021
scalar OsgEarthNet.uav[91] utilizationSecMission 682.94783150361
scalar OsgEarthNet.uav[91] utilizationSecMaintenance 298.15269315943
scalar OsgEarthNet.uav[91] utilizationSecCharge 1418.6393012562
scalar OsgEarthNet.uav[91] utilizationSecIdle 882.00050738283
scalar OsgEarthNet.uav[91] utilizationEnergyMission 3322.920791626
scalar OsgEarthNet.uav[91] utilizationEnergyMaintenance 1425.5418930054
scalar OsgEarthNet.uav[91] utilizationEnergyCharge 2457.3276367188
scalar OsgEarthNet.uav[91] utilizationEnergyOverdrawMission 0
scalar OsgEarthNet.uav[91] utilizationEnergyOverdrawMaintenance 0
scalar OsgEarthNet.uav[91] utilizationCountMissions 1
scalar OsgEarthNet.uav[91] utilizationCountManeuversMission 12
scalar OsgEarthNet.uav[91] utilizationCountManeuversMaintenance 2
scalar OsgEarthNet.uav[91] utilizationCountChargeState 1
scalar OsgEarthNet.uav[91] utilizationCountOverdrawnAfterMission 0
scalar OsgEarthNet.uav[91] utilizationCountIdleState 1
scalar OsgEarthNet.uav[91] utilizationFail 0
scalar OsgEarthNet.uav[91] simulationTime 3281.7413333021
scalar OsgEarthNet.uav[92] utilizationSecMission 882.2999280703
scalar OsgEarthNet.uav[92] utilizationSecMaintenance 155.33506196625
scalar OsgEarthNet.uav[92] utilizationSecCharge 2242.1053432655
scalar OsgEarthNet.uav[92] utilizationSecIdle 2
scalar OsgEarthNet.uav[92] utilizationEnergyMission 4078.263602129
scalar OsgEarthNet.uav[92] utilizationEnergyMaintenance 714.95148849487
scalar OsgEarthNet.uav[92] utilizationEnergyCharge 3905.3491210938
scalar OsgEarthNet.uav[92] utilizationEnergyOverdrawMission 0
scalar OsgEarthNet.uav[92] utilizationEnergyOverdrawMaintenance 0
scalar OsgEarthNet.uav[92] utilizationCountMissions 1
scalar OsgEarthNet.uav[92] utilizationCountManeuversMission 16
scalar OsgEarthNet.uav[92] utilizationCountManeuversMaintenance 1
scalar OsgEarthNet.uav[92] utilizationCountChargeState 1
scalar OsgEarthNet.uav[92] utilizationCountOverdrawnAfterMission 0
scalar OsgEarthNet.uav[92] utilizationCountIdleState 1
scalar OsgEarthNet.uav[92] utilizationFail 0
scalar OsgEarthNet.uav[92] simulationTime 3281.7413333021
scalar OsgEarthNet.uav[93] utilizationSecMission 0
scalar OsgEarthNet.uav[93] utilizationSecMaintenance 0
scalar OsgEarthNet.uav[93] utilizationSecCharge 0
scalar OsgEarthNet.uav[93] utilizationSecIdle 3281.7403333021
scalar OsgEarthNet.uav[93] utilizationEnergyMission 0
scalar OsgEarthNet.uav[93] utilizationEnergyMaintenance 0
scalar OsgEarthNet.uav[93] utilizationEnergyCharge 0
scalar OsgEarthNet.uav[93] utilizationEnergyOverdrawMission 0
scalar OsgEarthNet.uav[93] utilizationEnergyOverdrawMaintenance 0
scalar OsgEarthNet.uav[93] utilizationCountMissions 0
scalar OsgEarthNet.uav[93] utilizationCountManeuversMission 0
scalar OsgEarthNet.uav[93] utilizationCountManeuversMaintenance 0
scalar OsgEarthNet.uav[93] utilizationCountChargeState 0
scalar OsgEarthNet.uav[93] utilizationCountOverdrawnAfterMission 0
scalar OsgEarthNet.uav[93] utilizationCountIdleState 1
scalar OsgEarthNet.uav[93] utilizationFail 0
scalar OsgEarthNet.uav[93] simulationTime 3281.7413333021
scalar OsgEarthNet.uav[94] utilizationSecMission 0
scalar OsgEarthNet.uav[94] utilizationSecMaintenance 0
scalar OsgEarthNet.uav[94] utilizationSecCharge 0
scalar OsgEarthNet.uav[94] utilizationSecIdle 3281.7403333021
scalar OsgEarthNet.uav[94] utilizationEnergyMission 0
scalar OsgEarthNet.uav[94] utilizationEnergyMaintenance 0
scalar OsgEarthNet.uav[94] utilizationEnergyCharge 0
scalar OsgEarthNet.uav[94] utilizationEnergyOverdrawMission 0
scalar OsgEarthNet.uav[94] utilizationEnergyOverdrawMaintenance 0
scalar OsgEarthNet.uav[94] utilizationCountMissions 0
scalar OsgEarthNet.uav[94] utilizationCountManeuversMission 0
scalar OsgEarthNet.uav[94] utilizationCountManeuversMaintenance 0
scalar OsgEarthNet.uav[94] utilizationCountChargeState 0
scalar OsgEarthNet.uav[94] utilizationCountOverdrawnAfterMission 0
scalar OsgEarthNet.uav[94] utilizationCountIdleState 1
scalar OsgEarthNet.uav[94] utilizationFail 0
scalar OsgEarthNet.uav[94] simulationTime 3281.7413333021
scalar OsgEarthNet.uav[95] utilizationSecMission 694.00169469977
scalar OsgEarthNet.uav[95] utilizationSecMaintenance 338.49695459722
scalar OsgEarthNet.uav[95] utilizationSecCharge 52.536321463064
scalar OsgEarthNet.uav[95] utilizationSecIdle 2196.705362542
scalar OsgEarthNet.uav[95] utilizationEnergyMission 3311.0168533325
scalar OsgEarthNet.uav[95] utilizationEnergyMaintenance 1601.7205924988
scalar OsgEarthNet.uav[95] utilizationEnergyCharge 77.523498535156
scalar OsgEarthNet.uav[95] utilizationEnergyOverdrawMission 0
scalar OsgEarthNet.uav[95] utilizationEnergyOverdrawMaintenance 0
scalar OsgEarthNet.uav[95] utilizationCountMissions 1
scalar OsgEarthNet.uav[95] utilizationCountManeuversMission 13
scalar OsgEarthNet.uav[95] utilizationCountManeuversMaintenance 2
scalar OsgEarthNet.uav[95] utilizationCountChargeState 1
scalar OsgEarthNet.uav[95] utilizationCountOverdrawnAfterMission 0
scalar OsgEarthNet.uav[95] utilizationCountIdleState 1
scalar OsgEarthNet.uav[95] utilizationFail 0
scalar OsgEarthNet.uav[95] simulationTime 3281.7413333021
scalar OsgEarthNet.uav[96] utilizationSecMission 0
scalar OsgEarthNet.uav[96] utilizationSecMaintenance 0
scalar OsgEarthNet.uav[96] utilizationSecCharge 0
scalar OsgEarthNet.uav[96] utilizationSecIdle 3281.7403333021
scalar OsgEarthNet.uav[96] utilizationEnergyMission 0
scalar OsgEarthNet.uav[96] utilizationEnergyMaintenance 0
scalar OsgEarthNet.uav[96] utilizationEnergyCharge 0
scalar OsgEarthNet.uav[96] utilizationEnergyOverdrawMission 0
scalar OsgEarthNet.uav[96] utilizationEnergyOverdrawMaintenance 0
scalar OsgEarthNet.uav[96] utilizationCountMissions 0
scalar OsgEarthNet.uav[96] utilizationCountManeuversMission 0
scalar OsgEarthNet.uav[96] utilizationCountManeuversMaintenance 0
scalar OsgEarthNet.uav[96] utilizationCountChargeState 0
scalar OsgEarthNet.uav[96] utilizationCountOverdrawnAfterMission 0
scalar OsgEarthNet.uav[96] utilizationCountIdleState 1
scalar OsgEarthNet.uav[96] utilizationFail 0
scalar OsgEarthNet.uav[96] simulationTime 3281.7413333021
scalar OsgEarthNet.uav[97] utilizationSecMission 0
scalar OsgEarthNet.uav[97] utilizationSecMaintenance 0
scalar OsgEarthNet.uav[97] utilizationSecCharge 0
scalar OsgEarthNet.uav[97] utilizationSecIdle 3281.7403333021
scalar OsgEarthNet.uav[97] utilizationEnergyMission 0
scalar OsgEarthNet.uav[97] utilizationEnergyMaintenance 0
scalar OsgEarthNet.uav[97] utilizationEnergyCharge 0
scalar OsgEarthNet.uav[97] utilizationEnergyOverdrawMission 0
scalar OsgEarthNet.uav[97] utilizationEnergyOverdrawMaintenance 0
scalar OsgEarthNet.uav[97] utilizationCountMissions 0
scalar OsgEarthNet.uav[97] utilizationCountManeuversMission 0
scalar OsgEarthNet.uav[97] utilizationCountManeuversMaintenance 0
scalar OsgEarthNet.uav[97] utilizationCountChargeState 0
scalar OsgEarthNet.uav[97] utilizationCountOverdrawnAfterMission 0
scalar OsgEarthNet.uav[97] utilizationCountIdleState 1
scalar OsgEarthNet.uav[97] utilizationFail 0
scalar OsgEarthNet.uav[97] simulationTime 3281.7413333021
scalar OsgEarthNet.uav[98] utilizationSecMission 0
scalar OsgEarthNet.uav[98] utilizationSecMaintenance 0
scalar OsgEarthNet.uav[98] utilizationSecCharge 0
scalar OsgEarthNet.uav[98] utilizationSecIdle 3281.7403333021
scalar OsgEarthNet.uav[98] utilizationEnergyMission 0
scalar OsgEarthNet.uav[98] utilizationEnergyMaintenance 0
scalar OsgEarthNet.uav[98] utilizationEnergyCharge 0
scalar OsgEarthNet.uav[98] utilizationEnergyOverdrawMission 0
scalar OsgEarthNet.uav[98] utilizationEnergyOverdrawMaintenance 0
scalar OsgEarthNet.uav[98] utilizationCountMissions 0
scalar OsgEarthNet.uav[98] utilizationCountManeuversMission 0
scalar OsgEarthNet.uav[98] utilizationCountManeuversMaintenance 0
scalar OsgEarthNet.uav[98] utilizationCountChargeState 0
scalar OsgEarthNet.uav[98] utilizationCountOverdrawnAfterMission 0
scalar OsgEarthNet.uav[98] utilizationCountIdleState 1
scalar OsgEarthNet.uav[98] utilizationFail 0
scalar OsgEarthNet.uav[98] simulationTime 3281.7413333021
scalar OsgEarthNet.uav[99] utilizationSecMission 394.539654324
scalar OsgEarthNet.uav[99] utilizationSecMaintenance 165.19567897806
scalar OsgEarthNet.uav[99] utilizationSecCharge 0
scalar OsgEarthNet.uav[99] utilizationSecIdle 2722.005
scalar OsgEarthNet.uav[99] utilizationEnergyMission 2177.915463004
scalar OsgEarthNet.uav[99] utilizationEnergyMaintenance 857.15734863281
scalar OsgEarthNet.uav[99] utilizationEnergyCharge 0
scalar OsgEarthNet.uav[99] utilizationEnergyOverdrawMission 0
scalar OsgEarthNet.uav[99] utilizationEnergyOverdrawMaintenance 0
scalar OsgEarthNet.uav[99] utilizationCountMissions 0
scalar OsgEarthNet.uav[99] utilizationCountManeuversMission 20
scalar OsgEarthNet.uav[99] utilizationCountManeuversMaintenance 1
scalar OsgEarthNet.uav[99] utilizationCountChargeState 0
scalar OsgEarthNet.uav[99] utilizationCountOverdrawnAfterMission 0
scalar OsgEarthNet.uav[99] utilizationCountIdleState 1
scalar OsgEarthNet.uav[99] utilizationFail 0
scalar OsgEarthNet.uav[99] simulationTime 3281.7413333021
scalar OsgEarthNet.cs[0] usedPower 17885.2380226
scalar OsgEarthNet.cs[0] chargedPower 17885.2380226
scalar OsgEarthNet.cs[0] chargedMobileNodes 0
scalar OsgEarthNet.cs[0] reservations 8
scalar OsgEarthNet.cs[1] usedPower 15992.078465359
scalar OsgEarthNet.cs[1] chargedPower 15992.078465359
scalar OsgEarthNet.cs[1] chargedMobileNodes 0
scalar OsgEarthNet.cs[1] reservations 8
scalar OsgEarthNet.cs[2] usedPower 42266.541106679
scalar OsgEarthNet.cs[2] chargedPower 42266.541106679
scalar OsgEarthNet.cs[2] chargedMobileNodes 0
scalar OsgEarthNet.cs[2] reservations 21

