version 2
run Szenario_Hotel_Gabelbach-63-20180707-23:30:25-4552
attr configname Szenario_Hotel_Gabelbach
attr datetime 20180707-23:30:25
attr experiment Szenario_Hotel_Gabelbach
attr inifile omnetpp.ini
attr iterationvars "$quant=0.95, $replM=0"
attr iterationvarsf quant=0.95,replM=0-
attr measurement "$quant=0.95, $replM=0"
attr network OsgEarthNet
attr processid 4552
attr repetition 15
attr replication #15
attr resultdir results
attr runnumber 63
attr seedset 63
itervar quant 0.95
itervar replM 0
param *.osgEarthScene.scene "\"Szenario_Hotel_Gabelbach.earth\""
param *.playgroundLatitude 50.6830269
param *.playgroundLongitude 10.8538055
param *.playgroundWidth 3500m
param *.playgroundHeight 3500m
param *.numCSs 3
param *.numUAVs 100
param *.cs[0].posX 3537m
param *.cs[0].posY 965m
param *.cs[0].posZ 538m
param *.cs[1].posX 312m
param *.cs[1].posY 1262m
param *.cs[1].posZ 539m
param *.cs[2].posX 2185m
param *.cs[2].posY 3026m
param *.cs[2].posZ 777m
param *.uav[*].predictionQuantile 0.95
param *.uav[*].replacementMethod 0
param *.*.timeStep 10s
param *.uav[*].commandPreviewCommandCount 20
param *.missionControl.missionFiles "\"missions\\\\Szenario_WB_Hotel_Gabelbach_Mission_Hotel.waypoints,missions\\\\Szenario_WB_Hotel_Gabelbach_Mission_Kickelhahn.waypoints,missions\\\\Szenario_WB_Hotel_Gabelbach_Mission_Ilmenau_Sportplatz.waypoints,missions\\\\Szenario_WB_Hotel_Gabelbach_Mission_Manebach_Mitte.waypoints,missions\\\\Szenario_WB_Hotel_Gabelbach_Mission_Manebach_Sued.waypoints,missions\\\\Szenario_WB_Hotel_Gabelbach_Hover_HoheSchlaufe.waypoints,missions\\\\Szenario_WB_Hotel_Gabelbach_Hover_Kickelhahn.waypoints,missions\\\\Szenario_WB_Hotel_Gabelbach_Hover_Gabelbachskopf.waypoints,missions\\\\Szenario_WB_Hotel_Gabelbach_Hover_Dachskopf.waypoints\""
param *.uav[0].startX 3537m
param *.uav[0].startY 965m
param *.uav[0].startZ 539m
param *.uav[1].startX 312m
param *.uav[1].startY 1262m
param *.uav[1].startZ 540m
param *.uav[2].startX 2185m
param *.uav[2].startY 3026m
param *.uav[2].startZ 778m
param *.uav[3].startX 3537m
param *.uav[3].startY 965m
param *.uav[3].startZ 539m
param *.uav[4].startX 312m
param *.uav[4].startY 1262m
param *.uav[4].startZ 540m
param *.uav[5].startX 2185m
param *.uav[5].startY 3026m
param *.uav[5].startZ 778m
param *.uav[6].startX 3537m
param *.uav[6].startY 965m
param *.uav[6].startZ 539m
param *.uav[7].startX 312m
param *.uav[7].startY 1262m
param *.uav[7].startZ 540m
param *.uav[8].startX 2185m
param *.uav[8].startY 3026m
param *.uav[8].startZ 778m
param *.uav[9].startX 3537m
param *.uav[9].startY 965m
param *.uav[9].startZ 539m
param *.uav[10].startX 3537m
param *.uav[10].startY 965m
param *.uav[10].startZ 539m
param *.uav[11].startX 312m
param *.uav[11].startY 1262m
param *.uav[11].startZ 540m
param *.uav[12].startX 2185m
param *.uav[12].startY 3026m
param *.uav[12].startZ 778m
param *.uav[13].startX 3537m
param *.uav[13].startY 965m
param *.uav[13].startZ 539m
param *.uav[14].startX 312m
param *.uav[14].startY 1262m
param *.uav[14].startZ 540m
param *.uav[15].startX 2185m
param *.uav[15].startY 3026m
param *.uav[15].startZ 778m
param *.uav[16].startX 3537m
param *.uav[16].startY 965m
param *.uav[16].startZ 539m
param *.uav[17].startX 312m
param *.uav[17].startY 1262m
param *.uav[17].startZ 540m
param *.uav[18].startX 2185m
param *.uav[18].startY 3026m
param *.uav[18].startZ 778m
param *.uav[19].startX 3537m
param *.uav[19].startY 965m
param *.uav[19].startZ 539m
param *.uav[20].startX 3537m
param *.uav[20].startY 965m
param *.uav[20].startZ 539m
param *.uav[21].startX 312m
param *.uav[21].startY 1262m
param *.uav[21].startZ 540m
param *.uav[22].startX 2185m
param *.uav[22].startY 3026m
param *.uav[22].startZ 778m
param *.uav[23].startX 3537m
param *.uav[23].startY 965m
param *.uav[23].startZ 539m
param *.uav[24].startX 312m
param *.uav[24].startY 1262m
param *.uav[24].startZ 540m
param *.uav[25].startX 2185m
param *.uav[25].startY 3026m
param *.uav[25].startZ 778m
param *.uav[26].startX 3537m
param *.uav[26].startY 965m
param *.uav[26].startZ 539m
param *.uav[27].startX 312m
param *.uav[27].startY 1262m
param *.uav[27].startZ 540m
param *.uav[28].startX 2185m
param *.uav[28].startY 3026m
param *.uav[28].startZ 778m
param *.uav[29].startX 3537m
param *.uav[29].startY 965m
param *.uav[29].startZ 539m
param *.uav[30].startX 3537m
param *.uav[30].startY 965m
param *.uav[30].startZ 539m
param *.uav[31].startX 312m
param *.uav[31].startY 1262m
param *.uav[31].startZ 540m
param *.uav[32].startX 2185m
param *.uav[32].startY 3026m
param *.uav[32].startZ 778m
param *.uav[33].startX 3537m
param *.uav[33].startY 965m
param *.uav[33].startZ 539m
param *.uav[34].startX 312m
param *.uav[34].startY 1262m
param *.uav[34].startZ 540m
param *.uav[35].startX 2185m
param *.uav[35].startY 3026m
param *.uav[35].startZ 778m
param *.uav[36].startX 3537m
param *.uav[36].startY 965m
param *.uav[36].startZ 539m
param *.uav[37].startX 312m
param *.uav[37].startY 1262m
param *.uav[37].startZ 540m
param *.uav[38].startX 2185m
param *.uav[38].startY 3026m
param *.uav[38].startZ 778m
param *.uav[39].startX 3537m
param *.uav[39].startY 965m
param *.uav[39].startZ 539m
param *.uav[40].startX 3537m
param *.uav[40].startY 965m
param *.uav[40].startZ 539m
param *.uav[41].startX 312m
param *.uav[41].startY 1262m
param *.uav[41].startZ 540m
param *.uav[42].startX 2185m
param *.uav[42].startY 3026m
param *.uav[42].startZ 778m
param *.uav[43].startX 3537m
param *.uav[43].startY 965m
param *.uav[43].startZ 539m
param *.uav[44].startX 312m
param *.uav[44].startY 1262m
param *.uav[44].startZ 540m
param *.uav[45].startX 2185m
param *.uav[45].startY 3026m
param *.uav[45].startZ 778m
param *.uav[46].startX 3537m
param *.uav[46].startY 965m
param *.uav[46].startZ 539m
param *.uav[47].startX 312m
param *.uav[47].startY 1262m
param *.uav[47].startZ 540m
param *.uav[48].startX 2185m
param *.uav[48].startY 3026m
param *.uav[48].startZ 778m
param *.uav[49].startX 3537m
param *.uav[49].startY 965m
param *.uav[49].startZ 539m
param *.uav[50].startX 3537m
param *.uav[50].startY 965m
param *.uav[50].startZ 539m
param *.uav[51].startX 312m
param *.uav[51].startY 1262m
param *.uav[51].startZ 540m
param *.uav[52].startX 2185m
param *.uav[52].startY 3026m
param *.uav[52].startZ 778m
param *.uav[53].startX 3537m
param *.uav[53].startY 965m
param *.uav[53].startZ 539m
param *.uav[54].startX 312m
param *.uav[54].startY 1262m
param *.uav[54].startZ 540m
param *.uav[55].startX 2185m
param *.uav[55].startY 3026m
param *.uav[55].startZ 778m
param *.uav[56].startX 3537m
param *.uav[56].startY 965m
param *.uav[56].startZ 539m
param *.uav[57].startX 312m
param *.uav[57].startY 1262m
param *.uav[57].startZ 540m
param *.uav[58].startX 2185m
param *.uav[58].startY 3026m
param *.uav[58].startZ 778m
param *.uav[59].startX 3537m
param *.uav[59].startY 965m
param *.uav[59].startZ 539m
param *.uav[60].startX 3537m
param *.uav[60].startY 965m
param *.uav[60].startZ 539m
param *.uav[61].startX 312m
param *.uav[61].startY 1262m
param *.uav[61].startZ 540m
param *.uav[62].startX 2185m
param *.uav[62].startY 3026m
param *.uav[62].startZ 778m
param *.uav[63].startX 3537m
param *.uav[63].startY 965m
param *.uav[63].startZ 539m
param *.uav[64].startX 312m
param *.uav[64].startY 1262m
param *.uav[64].startZ 540m
param *.uav[65].startX 2185m
param *.uav[65].startY 3026m
param *.uav[65].startZ 778m
param *.uav[66].startX 3537m
param *.uav[66].startY 965m
param *.uav[66].startZ 539m
param *.uav[67].startX 312m
param *.uav[67].startY 1262m
param *.uav[67].startZ 540m
param *.uav[68].startX 2185m
param *.uav[68].startY 3026m
param *.uav[68].startZ 778m
param *.uav[69].startX 3537m
param *.uav[69].startY 965m
param *.uav[69].startZ 539m
param *.uav[70].startX 3537m
param *.uav[70].startY 965m
param *.uav[70].startZ 539m
param *.uav[71].startX 312m
param *.uav[71].startY 1262m
param *.uav[71].startZ 540m
param *.uav[72].startX 2185m
param *.uav[72].startY 3026m
param *.uav[72].startZ 778m
param *.uav[73].startX 3537m
param *.uav[73].startY 965m
param *.uav[73].startZ 539m
param *.uav[74].startX 312m
param *.uav[74].startY 1262m
param *.uav[74].startZ 540m
param *.uav[75].startX 2185m
param *.uav[75].startY 3026m
param *.uav[75].startZ 778m
param *.uav[76].startX 3537m
param *.uav[76].startY 965m
param *.uav[76].startZ 539m
param *.uav[77].startX 312m
param *.uav[77].startY 1262m
param *.uav[77].startZ 540m
param *.uav[78].startX 2185m
param *.uav[78].startY 3026m
param *.uav[78].startZ 778m
param *.uav[79].startX 3537m
param *.uav[79].startY 965m
param *.uav[79].startZ 539m
param *.uav[80].startX 3537m
param *.uav[80].startY 965m
param *.uav[80].startZ 539m
param *.uav[81].startX 312m
param *.uav[81].startY 1262m
param *.uav[81].startZ 540m
param *.uav[82].startX 2185m
param *.uav[82].startY 3026m
param *.uav[82].startZ 778m
param *.uav[83].startX 3537m
param *.uav[83].startY 965m
param *.uav[83].startZ 539m
param *.uav[84].startX 312m
param *.uav[84].startY 1262m
param *.uav[84].startZ 540m
param *.uav[85].startX 2185m
param *.uav[85].startY 3026m
param *.uav[85].startZ 778m
param *.uav[86].startX 3537m
param *.uav[86].startY 965m
param *.uav[86].startZ 539m
param *.uav[87].startX 312m
param *.uav[87].startY 1262m
param *.uav[87].startZ 540m
param *.uav[88].startX 2185m
param *.uav[88].startY 3026m
param *.uav[88].startZ 778m
param *.uav[89].startX 3537m
param *.uav[89].startY 965m
param *.uav[89].startZ 539m
param *.uav[90].startX 3537m
param *.uav[90].startY 965m
param *.uav[90].startZ 539m
param *.uav[91].startX 312m
param *.uav[91].startY 1262m
param *.uav[91].startZ 540m
param *.uav[92].startX 2185m
param *.uav[92].startY 3026m
param *.uav[92].startZ 778m
param *.uav[93].startX 3537m
param *.uav[93].startY 965m
param *.uav[93].startZ 539m
param *.uav[94].startX 312m
param *.uav[94].startY 1262m
param *.uav[94].startZ 540m
param *.uav[95].startX 2185m
param *.uav[95].startY 3026m
param *.uav[95].startZ 778m
param *.uav[96].startX 3537m
param *.uav[96].startY 965m
param *.uav[96].startZ 539m
param *.uav[97].startX 312m
param *.uav[97].startY 1262m
param *.uav[97].startZ 540m
param *.uav[98].startX 2185m
param *.uav[98].startY 3026m
param *.uav[98].startZ 778m
param *.uav[99].startX 3537m
param *.uav[99].startY 965m
param *.uav[99].startZ 539m
param *.osgEarthScene.scene "\"boston.earth\""
param *.playgroundLatitude 42.3558
param *.playgroundLongitude -71.0677
param *.playgroundWidth 400m
param *.playgroundHeight 200m
param *.channelController.connectionColor "\"#0000FF40\""
param *.channelController.showConnections false
param *.uav[*].modelURL "\"quadrocopter.small.obj.15.scale.0,0,90.rot\""
param *.uav[*].labelColor "\"#FF7C00CC\""
param *.uav[*].label2Color "\"#FF7C00EE\""
param *.uav[*].batteryCapacity 5200mAh
param *.uav[*].batteryRemaining uav[index].batteryCapacity
param *.uav[*].predictionQuantile 0.95
param *.uav[*].replacementMethod 2
param *.uav[*].weightedSumWeight 0.5
param *.cs[*].modelURL "\"chargingstation_v1.osgt.1.scale.0,0,0.rot.0,0,-15e-1.trans\""
param *.cs[*].spotsWaiting 999
param *.cs[*].spotsCharging 999
param *.cs[*].chargeEffectivenessPercentage 100
param *.cs[*].nonLinearPhaseStartPercentage 85
param *.cs[*].chargeCurrent 6.0A
param *.cs[*].prioritizeFastCharge true
param *.missionControl.replacementSearchMethod 0
param *.*.timeStep 9s

scalar OsgEarthNet.uav[0] utilizationSecMission 25987.400550716
scalar OsgEarthNet.uav[0] utilizationSecMaintenance 20882.751441574
scalar OsgEarthNet.uav[0] utilizationSecCharge 169477.83800771
scalar OsgEarthNet.uav[0] utilizationSecIdle 42852.009
scalar OsgEarthNet.uav[0] utilizationEnergyMission 123301.24518204
scalar OsgEarthNet.uav[0] utilizationEnergyMaintenance 97875.828395843
scalar OsgEarthNet.uav[0] utilizationEnergyCharge 222271.18115234
scalar OsgEarthNet.uav[0] utilizationEnergyOverdrawMission 0
scalar OsgEarthNet.uav[0] utilizationEnergyOverdrawMaintenance 0
scalar OsgEarthNet.uav[0] utilizationCountMissions 50
scalar OsgEarthNet.uav[0] utilizationCountManeuversMission 786
scalar OsgEarthNet.uav[0] utilizationCountManeuversMaintenance 100
scalar OsgEarthNet.uav[0] utilizationCountChargeState 50
scalar OsgEarthNet.uav[0] utilizationCountOverdrawnAfterMission 0
scalar OsgEarthNet.uav[0] utilizationCountIdleState 50
scalar OsgEarthNet.uav[0] utilizationFail 0
scalar OsgEarthNet.uav[0] simulationTime 259200
scalar OsgEarthNet.uav[1] utilizationSecMission 26081.710039943
scalar OsgEarthNet.uav[1] utilizationSecMaintenance 23889.936331263
scalar OsgEarthNet.uav[1] utilizationSecCharge 180900
scalar OsgEarthNet.uav[1] utilizationSecIdle 28328.352628794
scalar OsgEarthNet.uav[1] utilizationEnergyMission 127264.78337561
scalar OsgEarthNet.uav[1] utilizationEnergyMaintenance 111013.2772789
scalar OsgEarthNet.uav[1] utilizationEnergyCharge 235582.33032227
scalar OsgEarthNet.uav[1] utilizationEnergyOverdrawMission 0
scalar OsgEarthNet.uav[1] utilizationEnergyOverdrawMaintenance 0
scalar OsgEarthNet.uav[1] utilizationCountMissions 54
scalar OsgEarthNet.uav[1] utilizationCountManeuversMission 934
scalar OsgEarthNet.uav[1] utilizationCountManeuversMaintenance 109
scalar OsgEarthNet.uav[1] utilizationCountChargeState 54
scalar OsgEarthNet.uav[1] utilizationCountOverdrawnAfterMission 0
scalar OsgEarthNet.uav[1] utilizationCountIdleState 55
scalar OsgEarthNet.uav[1] utilizationFail 0
scalar OsgEarthNet.uav[1] simulationTime 259200
scalar OsgEarthNet.uav[2] utilizationSecMission 15255.672362074
scalar OsgEarthNet.uav[2] utilizationSecMaintenance 12740.741396513
scalar OsgEarthNet.uav[2] utilizationSecCharge 101250
scalar OsgEarthNet.uav[2] utilizationSecIdle 129953.58524141
scalar OsgEarthNet.uav[2] utilizationEnergyMission 73908.771533966
scalar OsgEarthNet.uav[2] utilizationEnergyMaintenance 58747.485710144
scalar OsgEarthNet.uav[2] utilizationEnergyCharge 132108.19824219
scalar OsgEarthNet.uav[2] utilizationEnergyOverdrawMission 0
scalar OsgEarthNet.uav[2] utilizationEnergyOverdrawMaintenance 0
scalar OsgEarthNet.uav[2] utilizationCountMissions 30
scalar OsgEarthNet.uav[2] utilizationCountManeuversMission 448
scalar OsgEarthNet.uav[2] utilizationCountManeuversMaintenance 60
scalar OsgEarthNet.uav[2] utilizationCountChargeState 30
scalar OsgEarthNet.uav[2] utilizationCountOverdrawnAfterMission 0
scalar OsgEarthNet.uav[2] utilizationCountIdleState 31
scalar OsgEarthNet.uav[2] utilizationFail 0
scalar OsgEarthNet.uav[2] simulationTime 259200
scalar OsgEarthNet.uav[3] utilizationSecMission 1799.6565278543
scalar OsgEarthNet.uav[3] utilizationSecMaintenance 2072.1893872363
scalar OsgEarthNet.uav[3] utilizationSecCharge 13960
scalar OsgEarthNet.uav[3] utilizationSecIdle 241368.15308491
scalar OsgEarthNet.uav[3] utilizationEnergyMission 8480.0960464478
scalar OsgEarthNet.uav[3] utilizationEnergyMaintenance 9758.1450881958
scalar OsgEarthNet.uav[3] utilizationEnergyCharge 18422.434570312
scalar OsgEarthNet.uav[3] utilizationEnergyOverdrawMission 0
scalar OsgEarthNet.uav[3] utilizationEnergyOverdrawMaintenance 187.96388244629
scalar OsgEarthNet.uav[3] utilizationCountMissions 4
scalar OsgEarthNet.uav[3] utilizationCountManeuversMission 53
scalar OsgEarthNet.uav[3] utilizationCountManeuversMaintenance 8
scalar OsgEarthNet.uav[3] utilizationCountChargeState 4
scalar OsgEarthNet.uav[3] utilizationCountOverdrawnAfterMission 1
scalar OsgEarthNet.uav[3] utilizationCountIdleState 5
scalar OsgEarthNet.uav[3] utilizationFail 0
scalar OsgEarthNet.uav[3] simulationTime 259200
scalar OsgEarthNet.uav[4] utilizationSecMission 24532.470886114
scalar OsgEarthNet.uav[4] utilizationSecMaintenance 21667.919499904
scalar OsgEarthNet.uav[4] utilizationSecCharge 165216.88711558
scalar OsgEarthNet.uav[4] utilizationSecIdle 47782.721498398
scalar OsgEarthNet.uav[4] utilizationEnergyMission 118086.19674683
scalar OsgEarthNet.uav[4] utilizationEnergyMaintenance 101165.82862854
scalar OsgEarthNet.uav[4] utilizationEnergyCharge 216955.87231445
scalar OsgEarthNet.uav[4] utilizationEnergyOverdrawMission 0
scalar OsgEarthNet.uav[4] utilizationEnergyOverdrawMaintenance 0
scalar OsgEarthNet.uav[4] utilizationCountMissions 49
scalar OsgEarthNet.uav[4] utilizationCountManeuversMission 710
scalar OsgEarthNet.uav[4] utilizationCountManeuversMaintenance 98
scalar OsgEarthNet.uav[4] utilizationCountChargeState 49
scalar OsgEarthNet.uav[4] utilizationCountOverdrawnAfterMission 0
scalar OsgEarthNet.uav[4] utilizationCountIdleState 49
scalar OsgEarthNet.uav[4] utilizationFail 0
scalar OsgEarthNet.uav[4] simulationTime 259200
scalar OsgEarthNet.uav[5] utilizationSecMission 25940.245368963
scalar OsgEarthNet.uav[5] utilizationSecMaintenance 22397.750631037
scalar OsgEarthNet.uav[5] utilizationSecCharge 172780
scalar OsgEarthNet.uav[5] utilizationSecIdle 38082.003
scalar OsgEarthNet.uav[5] utilizationEnergyMission 124079.40298742
scalar OsgEarthNet.uav[5] utilizationEnergyMaintenance 104360.19142914
scalar OsgEarthNet.uav[5] utilizationEnergyCharge 227521.39648438
scalar OsgEarthNet.uav[5] utilizationEnergyOverdrawMission 0
scalar OsgEarthNet.uav[5] utilizationEnergyOverdrawMaintenance 0
scalar OsgEarthNet.uav[5] utilizationCountMissions 50
scalar OsgEarthNet.uav[5] utilizationCountManeuversMission 774
scalar OsgEarthNet.uav[5] utilizationCountManeuversMaintenance 101
scalar OsgEarthNet.uav[5] utilizationCountChargeState 50
scalar OsgEarthNet.uav[5] utilizationCountOverdrawnAfterMission 0
scalar OsgEarthNet.uav[5] utilizationCountIdleState 51
scalar OsgEarthNet.uav[5] utilizationFail 0
scalar OsgEarthNet.uav[5] simulationTime 259200
scalar OsgEarthNet.uav[6] utilizationSecMission 540
scalar OsgEarthNet.uav[6] utilizationSecMaintenance 363.8841636065
scalar OsgEarthNet.uav[6] utilizationSecCharge 3220
scalar OsgEarthNet.uav[6] utilizationSecIdle 255076.11483639
scalar OsgEarthNet.uav[6] utilizationEnergyMission 2853.8918457031
scalar OsgEarthNet.uav[6] utilizationEnergyMaintenance 1734.3478507996
scalar OsgEarthNet.uav[6] utilizationEnergyCharge 4191.9672851562
scalar OsgEarthNet.uav[6] utilizationEnergyOverdrawMission 0
scalar OsgEarthNet.uav[6] utilizationEnergyOverdrawMaintenance 0
scalar OsgEarthNet.uav[6] utilizationCountMissions 1
scalar OsgEarthNet.uav[6] utilizationCountManeuversMission 27
scalar OsgEarthNet.uav[6] utilizationCountManeuversMaintenance 2
scalar OsgEarthNet.uav[6] utilizationCountChargeState 1
scalar OsgEarthNet.uav[6] utilizationCountOverdrawnAfterMission 0
scalar OsgEarthNet.uav[6] utilizationCountIdleState 2
scalar OsgEarthNet.uav[6] utilizationFail 0
scalar OsgEarthNet.uav[6] simulationTime 259200
scalar OsgEarthNet.uav[7] utilizationSecMission 7515.4215014546
scalar OsgEarthNet.uav[7] utilizationSecMaintenance 6776.2886345783
scalar OsgEarthNet.uav[7] utilizationSecCharge 50910
scalar OsgEarthNet.uav[7] utilizationSecIdle 193998.28886397
scalar OsgEarthNet.uav[7] utilizationEnergyMission 35642.125236511
scalar OsgEarthNet.uav[7] utilizationEnergyMaintenance 31725.384391785
scalar OsgEarthNet.uav[7] utilizationEnergyCharge 66490.147949219
scalar OsgEarthNet.uav[7] utilizationEnergyOverdrawMission 0
scalar OsgEarthNet.uav[7] utilizationEnergyOverdrawMaintenance 127.30847167969
scalar OsgEarthNet.uav[7] utilizationCountMissions 15
scalar OsgEarthNet.uav[7] utilizationCountManeuversMission 221
scalar OsgEarthNet.uav[7] utilizationCountManeuversMaintenance 30
scalar OsgEarthNet.uav[7] utilizationCountChargeState 15
scalar OsgEarthNet.uav[7] utilizationCountOverdrawnAfterMission 1
scalar OsgEarthNet.uav[7] utilizationCountIdleState 16
scalar OsgEarthNet.uav[7] utilizationFail 0
scalar OsgEarthNet.uav[7] simulationTime 259200
scalar OsgEarthNet.uav[8] utilizationSecMission 28149.765380325
scalar OsgEarthNet.uav[8] utilizationSecMaintenance 22368.557619614
scalar OsgEarthNet.uav[8] utilizationSecCharge 183769.67500006
scalar OsgEarthNet.uav[8] utilizationSecIdle 24912.001
scalar OsgEarthNet.uav[8] utilizationEnergyMission 134699.04620743
scalar OsgEarthNet.uav[8] utilizationEnergyMaintenance 104403.32062912
scalar OsgEarthNet.uav[8] utilizationEnergyCharge 240540.51293945
scalar OsgEarthNet.uav[8] utilizationEnergyOverdrawMission 0
scalar OsgEarthNet.uav[8] utilizationEnergyOverdrawMaintenance 0
scalar OsgEarthNet.uav[8] utilizationCountMissions 54
scalar OsgEarthNet.uav[8] utilizationCountManeuversMission 861
scalar OsgEarthNet.uav[8] utilizationCountManeuversMaintenance 108
scalar OsgEarthNet.uav[8] utilizationCountChargeState 54
scalar OsgEarthNet.uav[8] utilizationCountOverdrawnAfterMission 0
scalar OsgEarthNet.uav[8] utilizationCountIdleState 54
scalar OsgEarthNet.uav[8] utilizationFail 0
scalar OsgEarthNet.uav[8] simulationTime 259200
scalar OsgEarthNet.uav[9] utilizationSecMission 536.06111026321
scalar OsgEarthNet.uav[9] utilizationSecMaintenance 387.76056727994
scalar OsgEarthNet.uav[9] utilizationSecCharge 3190
scalar OsgEarthNet.uav[9] utilizationSecIdle 255086.17732246
scalar OsgEarthNet.uav[9] utilizationEnergyMission 2340.7899780273
scalar OsgEarthNet.uav[9] utilizationEnergyMaintenance 1754.5517807007
scalar OsgEarthNet.uav[9] utilizationEnergyCharge 4095.3461914062
scalar OsgEarthNet.uav[9] utilizationEnergyOverdrawMission 0
scalar OsgEarthNet.uav[9] utilizationEnergyOverdrawMaintenance 0
scalar OsgEarthNet.uav[9] utilizationCountMissions 1
scalar OsgEarthNet.uav[9] utilizationCountManeuversMission 8
scalar OsgEarthNet.uav[9] utilizationCountManeuversMaintenance 2
scalar OsgEarthNet.uav[9] utilizationCountChargeState 1
scalar OsgEarthNet.uav[9] utilizationCountOverdrawnAfterMission 0
scalar OsgEarthNet.uav[9] utilizationCountIdleState 2
scalar OsgEarthNet.uav[9] utilizationFail 0
scalar OsgEarthNet.uav[9] simulationTime 259200
scalar OsgEarthNet.uav[10] utilizationSecMission 21631.934995177
scalar OsgEarthNet.uav[10] utilizationSecMaintenance 18801.459840247
scalar OsgEarthNet.uav[10] utilizationSecCharge 146114.59116458
scalar OsgEarthNet.uav[10] utilizationSecIdle 72652.013
scalar OsgEarthNet.uav[10] utilizationEnergyMission 104841.82586288
scalar OsgEarthNet.uav[10] utilizationEnergyMaintenance 88548.559242248
scalar OsgEarthNet.uav[10] utilizationEnergyCharge 192840.90649414
scalar OsgEarthNet.uav[10] utilizationEnergyOverdrawMission 0
scalar OsgEarthNet.uav[10] utilizationEnergyOverdrawMaintenance 0
scalar OsgEarthNet.uav[10] utilizationCountMissions 43
scalar OsgEarthNet.uav[10] utilizationCountManeuversMission 631
scalar OsgEarthNet.uav[10] utilizationCountManeuversMaintenance 86
scalar OsgEarthNet.uav[10] utilizationCountChargeState 43
scalar OsgEarthNet.uav[10] utilizationCountOverdrawnAfterMission 0
scalar OsgEarthNet.uav[10] utilizationCountIdleState 43
scalar OsgEarthNet.uav[10] utilizationFail 0
scalar OsgEarthNet.uav[10] simulationTime 259200
scalar OsgEarthNet.uav[11] utilizationSecMission 25515.718166392
scalar OsgEarthNet.uav[11] utilizationSecMaintenance 26214.52493916
scalar OsgEarthNet.uav[11] utilizationSecCharge 188417.75589445
scalar OsgEarthNet.uav[11] utilizationSecIdle 19052
scalar OsgEarthNet.uav[11] utilizationEnergyMission 124734.4365387
scalar OsgEarthNet.uav[11] utilizationEnergyMaintenance 123988.72301865
scalar OsgEarthNet.uav[11] utilizationEnergyCharge 247573.04248047
scalar OsgEarthNet.uav[11] utilizationEnergyOverdrawMission 0
scalar OsgEarthNet.uav[11] utilizationEnergyOverdrawMaintenance 0
scalar OsgEarthNet.uav[11] utilizationCountMissions 56
scalar OsgEarthNet.uav[11] utilizationCountManeuversMission 841
scalar OsgEarthNet.uav[11] utilizationCountManeuversMaintenance 112
scalar OsgEarthNet.uav[11] utilizationCountChargeState 56
scalar OsgEarthNet.uav[11] utilizationCountOverdrawnAfterMission 0
scalar OsgEarthNet.uav[11] utilizationCountIdleState 56
scalar OsgEarthNet.uav[11] utilizationFail 0
scalar OsgEarthNet.uav[11] simulationTime 259200
scalar OsgEarthNet.uav[12] utilizationSecMission 17724.299933935
scalar OsgEarthNet.uav[12] utilizationSecMaintenance 15891.876990013
scalar OsgEarthNet.uav[12] utilizationSecCharge 120300
scalar OsgEarthNet.uav[12] utilizationSecIdle 105283.82207605
scalar OsgEarthNet.uav[12] utilizationEnergyMission 85029.814857483
scalar OsgEarthNet.uav[12] utilizationEnergyMaintenance 74402.188899994
scalar OsgEarthNet.uav[12] utilizationEnergyCharge 158202.69824219
scalar OsgEarthNet.uav[12] utilizationEnergyOverdrawMission 0
scalar OsgEarthNet.uav[12] utilizationEnergyOverdrawMaintenance 0
scalar OsgEarthNet.uav[12] utilizationCountMissions 35
scalar OsgEarthNet.uav[12] utilizationCountManeuversMission 491
scalar OsgEarthNet.uav[12] utilizationCountManeuversMaintenance 70
scalar OsgEarthNet.uav[12] utilizationCountChargeState 35
scalar OsgEarthNet.uav[12] utilizationCountOverdrawnAfterMission 0
scalar OsgEarthNet.uav[12] utilizationCountIdleState 36
scalar OsgEarthNet.uav[12] utilizationFail 0
scalar OsgEarthNet.uav[12] simulationTime 259200
scalar OsgEarthNet.uav[13] utilizationSecMission 22064.620977331
scalar OsgEarthNet.uav[13] utilizationSecMaintenance 21081.144260973
scalar OsgEarthNet.uav[13] utilizationSecCharge 155112.2217617
scalar OsgEarthNet.uav[13] utilizationSecIdle 60942.012
scalar OsgEarthNet.uav[13] utilizationEnergyMission 107901.00606537
scalar OsgEarthNet.uav[13] utilizationEnergyMaintenance 97790.615001678
scalar OsgEarthNet.uav[13] utilizationEnergyCharge 204051.15478516
scalar OsgEarthNet.uav[13] utilizationEnergyOverdrawMission 0
scalar OsgEarthNet.uav[13] utilizationEnergyOverdrawMaintenance 0
scalar OsgEarthNet.uav[13] utilizationCountMissions 46
scalar OsgEarthNet.uav[13] utilizationCountManeuversMission 723
scalar OsgEarthNet.uav[13] utilizationCountManeuversMaintenance 92
scalar OsgEarthNet.uav[13] utilizationCountChargeState 46
scalar OsgEarthNet.uav[13] utilizationCountOverdrawnAfterMission 0
scalar OsgEarthNet.uav[13] utilizationCountIdleState 46
scalar OsgEarthNet.uav[13] utilizationFail 0
scalar OsgEarthNet.uav[13] simulationTime 259200
scalar OsgEarthNet.uav[14] utilizationSecMission 24314.256976221
scalar OsgEarthNet.uav[14] utilizationSecMaintenance 25166.01030716
scalar OsgEarthNet.uav[14] utilizationSecCharge 177957.72371662
scalar OsgEarthNet.uav[14] utilizationSecIdle 31762.008
scalar OsgEarthNet.uav[14] utilizationEnergyMission 116952.06816864
scalar OsgEarthNet.uav[14] utilizationEnergyMaintenance 117826.38684463
scalar OsgEarthNet.uav[14] utilizationEnergyCharge 233070.27416992
scalar OsgEarthNet.uav[14] utilizationEnergyOverdrawMission 0
scalar OsgEarthNet.uav[14] utilizationEnergyOverdrawMaintenance 243.74014282227
scalar OsgEarthNet.uav[14] utilizationCountMissions 53
scalar OsgEarthNet.uav[14] utilizationCountManeuversMission 752
scalar OsgEarthNet.uav[14] utilizationCountManeuversMaintenance 106
scalar OsgEarthNet.uav[14] utilizationCountChargeState 53
scalar OsgEarthNet.uav[14] utilizationCountOverdrawnAfterMission 1
scalar OsgEarthNet.uav[14] utilizationCountIdleState 53
scalar OsgEarthNet.uav[14] utilizationFail 0
scalar OsgEarthNet.uav[14] simulationTime 259200
scalar OsgEarthNet.uav[15] utilizationSecMission 26769.612537923
scalar OsgEarthNet.uav[15] utilizationSecMaintenance 21030.961114787
scalar OsgEarthNet.uav[15] utilizationSecCharge 172600
scalar OsgEarthNet.uav[15] utilizationSecIdle 38799.42534729
scalar OsgEarthNet.uav[15] utilizationEnergyMission 128921.22404976
scalar OsgEarthNet.uav[15] utilizationEnergyMaintenance 97928.086483002
scalar OsgEarthNet.uav[15] utilizationEnergyCharge 225624.09008789
scalar OsgEarthNet.uav[15] utilizationEnergyOverdrawMission 0
scalar OsgEarthNet.uav[15] utilizationEnergyOverdrawMaintenance 0
scalar OsgEarthNet.uav[15] utilizationCountMissions 51
scalar OsgEarthNet.uav[15] utilizationCountManeuversMission 790
scalar OsgEarthNet.uav[15] utilizationCountManeuversMaintenance 103
scalar OsgEarthNet.uav[15] utilizationCountChargeState 51
scalar OsgEarthNet.uav[15] utilizationCountOverdrawnAfterMission 0
scalar OsgEarthNet.uav[15] utilizationCountIdleState 52
scalar OsgEarthNet.uav[15] utilizationFail 0
scalar OsgEarthNet.uav[15] simulationTime 259200
scalar OsgEarthNet.uav[16] utilizationSecMission 3240.8883821418
scalar OsgEarthNet.uav[16] utilizationSecMaintenance 3430.1873435898
scalar OsgEarthNet.uav[16] utilizationSecCharge 23620
scalar OsgEarthNet.uav[16] utilizationSecIdle 228908.92327427
scalar OsgEarthNet.uav[16] utilizationEnergyMission 15277.390514374
scalar OsgEarthNet.uav[16] utilizationEnergyMaintenance 15864.831634521
scalar OsgEarthNet.uav[16] utilizationEnergyCharge 30940.71484375
scalar OsgEarthNet.uav[16] utilizationEnergyOverdrawMission 0
scalar OsgEarthNet.uav[16] utilizationEnergyOverdrawMaintenance 0
scalar OsgEarthNet.uav[16] utilizationCountMissions 7
scalar OsgEarthNet.uav[16] utilizationCountManeuversMission 97
scalar OsgEarthNet.uav[16] utilizationCountManeuversMaintenance 14
scalar OsgEarthNet.uav[16] utilizationCountChargeState 7
scalar OsgEarthNet.uav[16] utilizationCountOverdrawnAfterMission 0
scalar OsgEarthNet.uav[16] utilizationCountIdleState 8
scalar OsgEarthNet.uav[16] utilizationFail 0
scalar OsgEarthNet.uav[16] simulationTime 259200
scalar OsgEarthNet.uav[17] utilizationSecMission 10191.95982106
scalar OsgEarthNet.uav[17] utilizationSecMaintenance 9633.2622922028
scalar OsgEarthNet.uav[17] utilizationSecCharge 71700
scalar OsgEarthNet.uav[17] utilizationSecIdle 167674.77688674
scalar OsgEarthNet.uav[17] utilizationEnergyMission 49984.833969116
scalar OsgEarthNet.uav[17] utilizationEnergyMaintenance 44280.492553711
scalar OsgEarthNet.uav[17] utilizationEnergyCharge 94077.378417969
scalar OsgEarthNet.uav[17] utilizationEnergyOverdrawMission 0
scalar OsgEarthNet.uav[17] utilizationEnergyOverdrawMaintenance 0
scalar OsgEarthNet.uav[17] utilizationCountMissions 21
scalar OsgEarthNet.uav[17] utilizationCountManeuversMission 328
scalar OsgEarthNet.uav[17] utilizationCountManeuversMaintenance 42
scalar OsgEarthNet.uav[17] utilizationCountChargeState 21
scalar OsgEarthNet.uav[17] utilizationCountOverdrawnAfterMission 0
scalar OsgEarthNet.uav[17] utilizationCountIdleState 22
scalar OsgEarthNet.uav[17] utilizationFail 0
scalar OsgEarthNet.uav[17] simulationTime 259200
scalar OsgEarthNet.uav[18] utilizationSecMission 24692.398669053
scalar OsgEarthNet.uav[18] utilizationSecMaintenance 21450.683368603
scalar OsgEarthNet.uav[18] utilizationSecCharge 168490
scalar OsgEarthNet.uav[18] utilizationSecIdle 44566.916962344
scalar OsgEarthNet.uav[18] utilizationEnergyMission 123257.54446411
scalar OsgEarthNet.uav[18] utilizationEnergyMaintenance 99549.480724335
scalar OsgEarthNet.uav[18] utilizationEnergyCharge 219727.33886719
scalar OsgEarthNet.uav[18] utilizationEnergyOverdrawMission 0
scalar OsgEarthNet.uav[18] utilizationEnergyOverdrawMaintenance 0
scalar OsgEarthNet.uav[18] utilizationCountMissions 50
scalar OsgEarthNet.uav[18] utilizationCountManeuversMission 845
scalar OsgEarthNet.uav[18] utilizationCountManeuversMaintenance 100
scalar OsgEarthNet.uav[18] utilizationCountChargeState 50
scalar OsgEarthNet.uav[18] utilizationCountOverdrawnAfterMission 0
scalar OsgEarthNet.uav[18] utilizationCountIdleState 51
scalar OsgEarthNet.uav[18] utilizationFail 0
scalar OsgEarthNet.uav[18] simulationTime 259200
scalar OsgEarthNet.uav[19] utilizationSecMission 28289.543414183
scalar OsgEarthNet.uav[19] utilizationSecMaintenance 23655.296703427
scalar OsgEarthNet.uav[19] utilizationSecCharge 184863.15888239
scalar OsgEarthNet.uav[19] utilizationSecIdle 22392
scalar OsgEarthNet.uav[19] utilizationEnergyMission 137348.74425507
scalar OsgEarthNet.uav[19] utilizationEnergyMaintenance 109857.28145218
scalar OsgEarthNet.uav[19] utilizationEnergyCharge 242400.32684326
scalar OsgEarthNet.uav[19] utilizationEnergyOverdrawMission 0
scalar OsgEarthNet.uav[19] utilizationEnergyOverdrawMaintenance 0
scalar OsgEarthNet.uav[19] utilizationCountMissions 55
scalar OsgEarthNet.uav[19] utilizationCountManeuversMission 848
scalar OsgEarthNet.uav[19] utilizationCountManeuversMaintenance 109
scalar OsgEarthNet.uav[19] utilizationCountChargeState 55
scalar OsgEarthNet.uav[19] utilizationCountOverdrawnAfterMission 0
scalar OsgEarthNet.uav[19] utilizationCountIdleState 55
scalar OsgEarthNet.uav[19] utilizationFail 0
scalar OsgEarthNet.uav[19] simulationTime 259200
scalar OsgEarthNet.uav[20] utilizationSecMission 650.68693590098
scalar OsgEarthNet.uav[20] utilizationSecMaintenance 350.31285707965
scalar OsgEarthNet.uav[20] utilizationSecCharge 3480
scalar OsgEarthNet.uav[20] utilizationSecIdle 254718.99920702
scalar OsgEarthNet.uav[20] utilizationEnergyMission 3060.4777832031
scalar OsgEarthNet.uav[20] utilizationEnergyMaintenance 1608.9601364136
scalar OsgEarthNet.uav[20] utilizationEnergyCharge 4669.4340820312
scalar OsgEarthNet.uav[20] utilizationEnergyOverdrawMission 0
scalar OsgEarthNet.uav[20] utilizationEnergyOverdrawMaintenance 0
scalar OsgEarthNet.uav[20] utilizationCountMissions 1
scalar OsgEarthNet.uav[20] utilizationCountManeuversMission 9
scalar OsgEarthNet.uav[20] utilizationCountManeuversMaintenance 2
scalar OsgEarthNet.uav[20] utilizationCountChargeState 1
scalar OsgEarthNet.uav[20] utilizationCountOverdrawnAfterMission 0
scalar OsgEarthNet.uav[20] utilizationCountIdleState 2
scalar OsgEarthNet.uav[20] utilizationFail 0
scalar OsgEarthNet.uav[20] simulationTime 259200
scalar OsgEarthNet.uav[21] utilizationSecMission 25277.003457636
scalar OsgEarthNet.uav[21] utilizationSecMaintenance 23610.986542364
scalar OsgEarthNet.uav[21] utilizationSecCharge 179070
scalar OsgEarthNet.uav[21] utilizationSecIdle 31242.009
scalar OsgEarthNet.uav[21] utilizationEnergyMission 123730.37369156
scalar OsgEarthNet.uav[21] utilizationEnergyMaintenance 110827.05717301
scalar OsgEarthNet.uav[21] utilizationEnergyCharge 233500.41430664
scalar OsgEarthNet.uav[21] utilizationEnergyOverdrawMission 0
scalar OsgEarthNet.uav[21] utilizationEnergyOverdrawMaintenance 0
scalar OsgEarthNet.uav[21] utilizationCountMissions 53
scalar OsgEarthNet.uav[21] utilizationCountManeuversMission 853
scalar OsgEarthNet.uav[21] utilizationCountManeuversMaintenance 107
scalar OsgEarthNet.uav[21] utilizationCountChargeState 53
scalar OsgEarthNet.uav[21] utilizationCountOverdrawnAfterMission 0
scalar OsgEarthNet.uav[21] utilizationCountIdleState 54
scalar OsgEarthNet.uav[21] utilizationFail 0
scalar OsgEarthNet.uav[21] simulationTime 259200
scalar OsgEarthNet.uav[22] utilizationSecMission 27010.892481602
scalar OsgEarthNet.uav[22] utilizationSecMaintenance 22357.436311624
scalar OsgEarthNet.uav[22] utilizationSecCharge 179389.66820677
scalar OsgEarthNet.uav[22] utilizationSecIdle 30442.002
scalar OsgEarthNet.uav[22] utilizationEnergyMission 129048.79436874
scalar OsgEarthNet.uav[22] utilizationEnergyMaintenance 104543.126297
scalar OsgEarthNet.uav[22] utilizationEnergyCharge 235327.4453125
scalar OsgEarthNet.uav[22] utilizationEnergyOverdrawMission 0
scalar OsgEarthNet.uav[22] utilizationEnergyOverdrawMaintenance 0
scalar OsgEarthNet.uav[22] utilizationCountMissions 53
scalar OsgEarthNet.uav[22] utilizationCountManeuversMission 812
scalar OsgEarthNet.uav[22] utilizationCountManeuversMaintenance 106
scalar OsgEarthNet.uav[22] utilizationCountChargeState 53
scalar OsgEarthNet.uav[22] utilizationCountOverdrawnAfterMission 0
scalar OsgEarthNet.uav[22] utilizationCountIdleState 53
scalar OsgEarthNet.uav[22] utilizationFail 0
scalar OsgEarthNet.uav[22] simulationTime 259200
scalar OsgEarthNet.uav[23] utilizationSecMission 29492.439929384
scalar OsgEarthNet.uav[23] utilizationSecMaintenance 20115.553070616
scalar OsgEarthNet.uav[23] utilizationSecCharge 177210
scalar OsgEarthNet.uav[23] utilizationSecIdle 32382.006
scalar OsgEarthNet.uav[23] utilizationEnergyMission 141814.65816692
scalar OsgEarthNet.uav[23] utilizationEnergyMaintenance 93529.750526428
scalar OsgEarthNet.uav[23] utilizationEnergyCharge 232380.91699219
scalar OsgEarthNet.uav[23] utilizationEnergyOverdrawMission 0
scalar OsgEarthNet.uav[23] utilizationEnergyOverdrawMaintenance 0
scalar OsgEarthNet.uav[23] utilizationCountMissions 52
scalar OsgEarthNet.uav[23] utilizationCountManeuversMission 971
scalar OsgEarthNet.uav[23] utilizationCountManeuversMaintenance 105
scalar OsgEarthNet.uav[23] utilizationCountChargeState 52
scalar OsgEarthNet.uav[23] utilizationCountOverdrawnAfterMission 0
scalar OsgEarthNet.uav[23] utilizationCountIdleState 53
scalar OsgEarthNet.uav[23] utilizationFail 0
scalar OsgEarthNet.uav[23] simulationTime 259200
scalar OsgEarthNet.uav[24] utilizationSecMission 28312.367258656
scalar OsgEarthNet.uav[24] utilizationSecMaintenance 23188.16615959
scalar OsgEarthNet.uav[24] utilizationSecCharge 184967.46358175
scalar OsgEarthNet.uav[24] utilizationSecIdle 22732.002
scalar OsgEarthNet.uav[24] utilizationEnergyMission 135007.64995193
scalar OsgEarthNet.uav[24] utilizationEnergyMaintenance 107080.79492187
scalar OsgEarthNet.uav[24] utilizationEnergyCharge 242534.93261719
scalar OsgEarthNet.uav[24] utilizationEnergyOverdrawMission 0
scalar OsgEarthNet.uav[24] utilizationEnergyOverdrawMaintenance 0
scalar OsgEarthNet.uav[24] utilizationCountMissions 55
scalar OsgEarthNet.uav[24] utilizationCountManeuversMission 817
scalar OsgEarthNet.uav[24] utilizationCountManeuversMaintenance 110
scalar OsgEarthNet.uav[24] utilizationCountChargeState 55
scalar OsgEarthNet.uav[24] utilizationCountOverdrawnAfterMission 0
scalar OsgEarthNet.uav[24] utilizationCountIdleState 55
scalar OsgEarthNet.uav[24] utilizationFail 0
scalar OsgEarthNet.uav[24] simulationTime 259200
scalar OsgEarthNet.uav[25] utilizationSecMission 11279.234376872
scalar OsgEarthNet.uav[25] utilizationSecMaintenance 10705.076821568
scalar OsgEarthNet.uav[25] utilizationSecCharge 79020
scalar OsgEarthNet.uav[25] utilizationSecIdle 158195.68780156
scalar OsgEarthNet.uav[25] utilizationEnergyMission 54421.895011902
scalar OsgEarthNet.uav[25] utilizationEnergyMaintenance 49600.172813415
scalar OsgEarthNet.uav[25] utilizationEnergyCharge 103858.31835938
scalar OsgEarthNet.uav[25] utilizationEnergyOverdrawMission 0
scalar OsgEarthNet.uav[25] utilizationEnergyOverdrawMaintenance 0
scalar OsgEarthNet.uav[25] utilizationCountMissions 23
scalar OsgEarthNet.uav[25] utilizationCountManeuversMission 341
scalar OsgEarthNet.uav[25] utilizationCountManeuversMaintenance 46
scalar OsgEarthNet.uav[25] utilizationCountChargeState 23
scalar OsgEarthNet.uav[25] utilizationCountOverdrawnAfterMission 0
scalar OsgEarthNet.uav[25] utilizationCountIdleState 24
scalar OsgEarthNet.uav[25] utilizationFail 0
scalar OsgEarthNet.uav[25] simulationTime 259200
scalar OsgEarthNet.uav[26] utilizationSecMission 26259.951451748
scalar OsgEarthNet.uav[26] utilizationSecMaintenance 20937.271616931
scalar OsgEarthNet.uav[26] utilizationSecCharge 175050
scalar OsgEarthNet.uav[26] utilizationSecIdle 36952.77593132
scalar OsgEarthNet.uav[26] utilizationEnergyMission 128404.56031799
scalar OsgEarthNet.uav[26] utilizationEnergyMaintenance 98146.421440124
scalar OsgEarthNet.uav[26] utilizationEnergyCharge 228737.13378906
scalar OsgEarthNet.uav[26] utilizationEnergyOverdrawMission 0
scalar OsgEarthNet.uav[26] utilizationEnergyOverdrawMaintenance 0
scalar OsgEarthNet.uav[26] utilizationCountMissions 52
scalar OsgEarthNet.uav[26] utilizationCountManeuversMission 932
scalar OsgEarthNet.uav[26] utilizationCountManeuversMaintenance 104
scalar OsgEarthNet.uav[26] utilizationCountChargeState 52
scalar OsgEarthNet.uav[26] utilizationCountOverdrawnAfterMission 0
scalar OsgEarthNet.uav[26] utilizationCountIdleState 53
scalar OsgEarthNet.uav[26] utilizationFail 0
scalar OsgEarthNet.uav[26] simulationTime 259200
scalar OsgEarthNet.uav[27] utilizationSecMission 320
scalar OsgEarthNet.uav[27] utilizationSecMaintenance 507.16988087142
scalar OsgEarthNet.uav[27] utilizationSecCharge 3430
scalar OsgEarthNet.uav[27] utilizationSecIdle 254942.82911913
scalar OsgEarthNet.uav[27] utilizationEnergyMission 1651.9639015198
scalar OsgEarthNet.uav[27] utilizationEnergyMaintenance 2457.4093742371
scalar OsgEarthNet.uav[27] utilizationEnergyCharge 4543.43359375
scalar OsgEarthNet.uav[27] utilizationEnergyOverdrawMission 0
scalar OsgEarthNet.uav[27] utilizationEnergyOverdrawMaintenance 0
scalar OsgEarthNet.uav[27] utilizationCountMissions 1
scalar OsgEarthNet.uav[27] utilizationCountManeuversMission 16
scalar OsgEarthNet.uav[27] utilizationCountManeuversMaintenance 2
scalar OsgEarthNet.uav[27] utilizationCountChargeState 1
scalar OsgEarthNet.uav[27] utilizationCountOverdrawnAfterMission 0
scalar OsgEarthNet.uav[27] utilizationCountIdleState 2
scalar OsgEarthNet.uav[27] utilizationFail 0
scalar OsgEarthNet.uav[27] simulationTime 259200
scalar OsgEarthNet.uav[28] utilizationSecMission 23917.526580325
scalar OsgEarthNet.uav[28] utilizationSecMaintenance 20585.105000075
scalar OsgEarthNet.uav[28] utilizationSecCharge 157477.73633894
scalar OsgEarthNet.uav[28] utilizationSecIdle 57219.631080665
scalar OsgEarthNet.uav[28] utilizationEnergyMission 115897.78211212
scalar OsgEarthNet.uav[28] utilizationEnergyMaintenance 95031.073986053
scalar OsgEarthNet.uav[28] utilizationEnergyCharge 206635.02856445
scalar OsgEarthNet.uav[28] utilizationEnergyOverdrawMission 0
scalar OsgEarthNet.uav[28] utilizationEnergyOverdrawMaintenance 0
scalar OsgEarthNet.uav[28] utilizationCountMissions 47
scalar OsgEarthNet.uav[28] utilizationCountManeuversMission 704
scalar OsgEarthNet.uav[28] utilizationCountManeuversMaintenance 94
scalar OsgEarthNet.uav[28] utilizationCountChargeState 47
scalar OsgEarthNet.uav[28] utilizationCountOverdrawnAfterMission 0
scalar OsgEarthNet.uav[28] utilizationCountIdleState 47
scalar OsgEarthNet.uav[28] utilizationFail 0
scalar OsgEarthNet.uav[28] simulationTime 259200
scalar OsgEarthNet.uav[29] utilizationSecMission 24463.275401669
scalar OsgEarthNet.uav[29] utilizationSecMaintenance 21159.768071092
scalar OsgEarthNet.uav[29] utilizationSecCharge 164784.94552724
scalar OsgEarthNet.uav[29] utilizationSecIdle 48792.01
scalar OsgEarthNet.uav[29] utilizationEnergyMission 120285.39296722
scalar OsgEarthNet.uav[29] utilizationEnergyMaintenance 98096.790912628
scalar OsgEarthNet.uav[29] utilizationEnergyCharge 217917.09301758
scalar OsgEarthNet.uav[29] utilizationEnergyOverdrawMission 0
scalar OsgEarthNet.uav[29] utilizationEnergyOverdrawMaintenance 0
scalar OsgEarthNet.uav[29] utilizationCountMissions 48
scalar OsgEarthNet.uav[29] utilizationCountManeuversMission 727
scalar OsgEarthNet.uav[29] utilizationCountManeuversMaintenance 96
scalar OsgEarthNet.uav[29] utilizationCountChargeState 48
scalar OsgEarthNet.uav[29] utilizationCountOverdrawnAfterMission 0
scalar OsgEarthNet.uav[29] utilizationCountIdleState 48
scalar OsgEarthNet.uav[29] utilizationFail 0
scalar OsgEarthNet.uav[29] simulationTime 259200
scalar OsgEarthNet.uav[30] utilizationSecMission 26196.582373136
scalar OsgEarthNet.uav[30] utilizationSecMaintenance 23098.425917352
scalar OsgEarthNet.uav[30] utilizationSecCharge 180232.98570951
scalar OsgEarthNet.uav[30] utilizationSecIdle 29672.005
scalar OsgEarthNet.uav[30] utilizationEnergyMission 128646.28321838
scalar OsgEarthNet.uav[30] utilizationEnergyMaintenance 107426.07508469
scalar OsgEarthNet.uav[30] utilizationEnergyCharge 235650.19482422
scalar OsgEarthNet.uav[30] utilizationEnergyOverdrawMission 0
scalar OsgEarthNet.uav[30] utilizationEnergyOverdrawMaintenance 0
scalar OsgEarthNet.uav[30] utilizationCountMissions 54
scalar OsgEarthNet.uav[30] utilizationCountManeuversMission 876
scalar OsgEarthNet.uav[30] utilizationCountManeuversMaintenance 108
scalar OsgEarthNet.uav[30] utilizationCountChargeState 54
scalar OsgEarthNet.uav[30] utilizationCountOverdrawnAfterMission 0
scalar OsgEarthNet.uav[30] utilizationCountIdleState 54
scalar OsgEarthNet.uav[30] utilizationFail 0
scalar OsgEarthNet.uav[30] simulationTime 259200
scalar OsgEarthNet.uav[31] utilizationSecMission 25923.263629391
scalar OsgEarthNet.uav[31] utilizationSecMaintenance 22210.276053936
scalar OsgEarthNet.uav[31] utilizationSecCharge 173347.90830594
scalar OsgEarthNet.uav[31] utilizationSecIdle 37718.551010737
scalar OsgEarthNet.uav[31] utilizationEnergyMission 125832.0737915
scalar OsgEarthNet.uav[31] utilizationEnergyMaintenance 103606.94153976
scalar OsgEarthNet.uav[31] utilizationEnergyCharge 227800.51391602
scalar OsgEarthNet.uav[31] utilizationEnergyOverdrawMission 0
scalar OsgEarthNet.uav[31] utilizationEnergyOverdrawMaintenance 141.37953186035
scalar OsgEarthNet.uav[31] utilizationCountMissions 51
scalar OsgEarthNet.uav[31] utilizationCountManeuversMission 803
scalar OsgEarthNet.uav[31] utilizationCountManeuversMaintenance 102
scalar OsgEarthNet.uav[31] utilizationCountChargeState 51
scalar OsgEarthNet.uav[31] utilizationCountOverdrawnAfterMission 1
scalar OsgEarthNet.uav[31] utilizationCountIdleState 51
scalar OsgEarthNet.uav[31] utilizationFail 0
scalar OsgEarthNet.uav[31] simulationTime 259200
scalar OsgEarthNet.uav[32] utilizationSecMission 20027.736128445
scalar OsgEarthNet.uav[32] utilizationSecMaintenance 18331.867427722
scalar OsgEarthNet.uav[32] utilizationSecCharge 137276.8701126
scalar OsgEarthNet.uav[32] utilizationSecIdle 83563.525331232
scalar OsgEarthNet.uav[32] utilizationEnergyMission 96898.204101563
scalar OsgEarthNet.uav[32] utilizationEnergyMaintenance 85777.268539429
scalar OsgEarthNet.uav[32] utilizationEnergyCharge 180204.40673828
scalar OsgEarthNet.uav[32] utilizationEnergyOverdrawMission 0
scalar OsgEarthNet.uav[32] utilizationEnergyOverdrawMaintenance 341.87319946289
scalar OsgEarthNet.uav[32] utilizationCountMissions 41
scalar OsgEarthNet.uav[32] utilizationCountManeuversMission 668
scalar OsgEarthNet.uav[32] utilizationCountManeuversMaintenance 82
scalar OsgEarthNet.uav[32] utilizationCountChargeState 41
scalar OsgEarthNet.uav[32] utilizationCountOverdrawnAfterMission 1
scalar OsgEarthNet.uav[32] utilizationCountIdleState 41
scalar OsgEarthNet.uav[32] utilizationFail 0
scalar OsgEarthNet.uav[32] simulationTime 259200
scalar OsgEarthNet.uav[33] utilizationSecMission 25235.814183096
scalar OsgEarthNet.uav[33] utilizationSecMaintenance 21799.540394981
scalar OsgEarthNet.uav[33] utilizationSecCharge 169910
scalar OsgEarthNet.uav[33] utilizationSecIdle 42254.644421923
scalar OsgEarthNet.uav[33] utilizationEnergyMission 121755.97873688
scalar OsgEarthNet.uav[33] utilizationEnergyMaintenance 100824.47646169
scalar OsgEarthNet.uav[33] utilizationEnergyCharge 222006.88769531
scalar OsgEarthNet.uav[33] utilizationEnergyOverdrawMission 0
scalar OsgEarthNet.uav[33] utilizationEnergyOverdrawMaintenance 0
scalar OsgEarthNet.uav[33] utilizationCountMissions 50
scalar OsgEarthNet.uav[33] utilizationCountManeuversMission 764
scalar OsgEarthNet.uav[33] utilizationCountManeuversMaintenance 101
scalar OsgEarthNet.uav[33] utilizationCountChargeState 50
scalar OsgEarthNet.uav[33] utilizationCountOverdrawnAfterMission 0
scalar OsgEarthNet.uav[33] utilizationCountIdleState 51
scalar OsgEarthNet.uav[33] utilizationFail 0
scalar OsgEarthNet.uav[33] simulationTime 259200
scalar OsgEarthNet.uav[34] utilizationSecMission 26262.254152931
scalar OsgEarthNet.uav[34] utilizationSecMaintenance 24365.564648807
scalar OsgEarthNet.uav[34] utilizationSecCharge 180382.16189656
scalar OsgEarthNet.uav[34] utilizationSecIdle 28190.0183017
scalar OsgEarthNet.uav[34] utilizationEnergyMission 125859.13874817
scalar OsgEarthNet.uav[34] utilizationEnergyMaintenance 113102.76527023
scalar OsgEarthNet.uav[34] utilizationEnergyCharge 237679.26513672
scalar OsgEarthNet.uav[34] utilizationEnergyOverdrawMission 0
scalar OsgEarthNet.uav[34] utilizationEnergyOverdrawMaintenance 177.69062805176
scalar OsgEarthNet.uav[34] utilizationCountMissions 53
scalar OsgEarthNet.uav[34] utilizationCountManeuversMission 758
scalar OsgEarthNet.uav[34] utilizationCountManeuversMaintenance 106
scalar OsgEarthNet.uav[34] utilizationCountChargeState 53
scalar OsgEarthNet.uav[34] utilizationCountOverdrawnAfterMission 1
scalar OsgEarthNet.uav[34] utilizationCountIdleState 53
scalar OsgEarthNet.uav[34] utilizationFail 0
scalar OsgEarthNet.uav[34] simulationTime 259200
scalar OsgEarthNet.uav[35] utilizationSecMission 28963.921176192
scalar OsgEarthNet.uav[35] utilizationSecMaintenance 21631.257587906
scalar OsgEarthNet.uav[35] utilizationSecCharge 178882.8182359
scalar OsgEarthNet.uav[35] utilizationSecIdle 29722.002
scalar OsgEarthNet.uav[35] utilizationEnergyMission 138351.40896988
scalar OsgEarthNet.uav[35] utilizationEnergyMaintenance 100148.31718445
scalar OsgEarthNet.uav[35] utilizationEnergyCharge 234733.36016846
scalar OsgEarthNet.uav[35] utilizationEnergyOverdrawMission 0
scalar OsgEarthNet.uav[35] utilizationEnergyOverdrawMaintenance 0
scalar OsgEarthNet.uav[35] utilizationCountMissions 53
scalar OsgEarthNet.uav[35] utilizationCountManeuversMission 848
scalar OsgEarthNet.uav[35] utilizationCountManeuversMaintenance 106
scalar OsgEarthNet.uav[35] utilizationCountChargeState 53
scalar OsgEarthNet.uav[35] utilizationCountOverdrawnAfterMission 0
scalar OsgEarthNet.uav[35] utilizationCountIdleState 53
scalar OsgEarthNet.uav[35] utilizationFail 0
scalar OsgEarthNet.uav[35] simulationTime 259200
scalar OsgEarthNet.uav[36] utilizationSecMission 24018.525840183
scalar OsgEarthNet.uav[36] utilizationSecMaintenance 20065.409057108
scalar OsgEarthNet.uav[36] utilizationSecCharge 156997.96616919
scalar OsgEarthNet.uav[36] utilizationSecIdle 58118.097933514
scalar OsgEarthNet.uav[36] utilizationEnergyMission 115446.24868011
scalar OsgEarthNet.uav[36] utilizationEnergyMaintenance 92746.374359131
scalar OsgEarthNet.uav[36] utilizationEnergyCharge 205811.1862793
scalar OsgEarthNet.uav[36] utilizationEnergyOverdrawMission 0
scalar OsgEarthNet.uav[36] utilizationEnergyOverdrawMaintenance 0
scalar OsgEarthNet.uav[36] utilizationCountMissions 47
scalar OsgEarthNet.uav[36] utilizationCountManeuversMission 691
scalar OsgEarthNet.uav[36] utilizationCountManeuversMaintenance 94
scalar OsgEarthNet.uav[36] utilizationCountChargeState 47
scalar OsgEarthNet.uav[36] utilizationCountOverdrawnAfterMission 0
scalar OsgEarthNet.uav[36] utilizationCountIdleState 47
scalar OsgEarthNet.uav[36] utilizationFail 0
scalar OsgEarthNet.uav[36] simulationTime 259200
scalar OsgEarthNet.uav[37] utilizationSecMission 16684.105891187
scalar OsgEarthNet.uav[37] utilizationSecMaintenance 14897.827941648
scalar OsgEarthNet.uav[37] utilizationSecCharge 112922.61807847
scalar OsgEarthNet.uav[37] utilizationSecIdle 114695.44708869
scalar OsgEarthNet.uav[37] utilizationEnergyMission 82687.427017212
scalar OsgEarthNet.uav[37] utilizationEnergyMaintenance 68428.19965744
scalar OsgEarthNet.uav[37] utilizationEnergyCharge 148476.63012695
scalar OsgEarthNet.uav[37] utilizationEnergyOverdrawMission 0
scalar OsgEarthNet.uav[37] utilizationEnergyOverdrawMaintenance 0
scalar OsgEarthNet.uav[37] utilizationCountMissions 34
scalar OsgEarthNet.uav[37] utilizationCountManeuversMission 597
scalar OsgEarthNet.uav[37] utilizationCountManeuversMaintenance 68
scalar OsgEarthNet.uav[37] utilizationCountChargeState 34
scalar OsgEarthNet.uav[37] utilizationCountOverdrawnAfterMission 0
scalar OsgEarthNet.uav[37] utilizationCountIdleState 34
scalar OsgEarthNet.uav[37] utilizationFail 0
scalar OsgEarthNet.uav[37] simulationTime 259200
scalar OsgEarthNet.uav[38] utilizationSecMission 22914.680443893
scalar OsgEarthNet.uav[38] utilizationSecMaintenance 21792.970825488
scalar OsgEarthNet.uav[38] utilizationSecCharge 160776.89207722
scalar OsgEarthNet.uav[38] utilizationSecIdle 53715.455653403
scalar OsgEarthNet.uav[38] utilizationEnergyMission 111476.64011002
scalar OsgEarthNet.uav[38] utilizationEnergyMaintenance 99582.923549652
scalar OsgEarthNet.uav[38] utilizationEnergyCharge 210790.18115234
scalar OsgEarthNet.uav[38] utilizationEnergyOverdrawMission 0
scalar OsgEarthNet.uav[38] utilizationEnergyOverdrawMaintenance 0
scalar OsgEarthNet.uav[38] utilizationCountMissions 48
scalar OsgEarthNet.uav[38] utilizationCountManeuversMission 775
scalar OsgEarthNet.uav[38] utilizationCountManeuversMaintenance 96
scalar OsgEarthNet.uav[38] utilizationCountChargeState 48
scalar OsgEarthNet.uav[38] utilizationCountOverdrawnAfterMission 0
scalar OsgEarthNet.uav[38] utilizationCountIdleState 48
scalar OsgEarthNet.uav[38] utilizationFail 0
scalar OsgEarthNet.uav[38] simulationTime 259200
scalar OsgEarthNet.uav[39] utilizationSecMission 17365.651193156
scalar OsgEarthNet.uav[39] utilizationSecMaintenance 14658.157432315
scalar OsgEarthNet.uav[39] utilizationSecCharge 113091.61513487
scalar OsgEarthNet.uav[39] utilizationSecIdle 114084.57523966
scalar OsgEarthNet.uav[39] utilizationEnergyMission 83627.421283722
scalar OsgEarthNet.uav[39] utilizationEnergyMaintenance 67919.45835495
scalar OsgEarthNet.uav[39] utilizationEnergyCharge 148674.94616699
scalar OsgEarthNet.uav[39] utilizationEnergyOverdrawMission 0
scalar OsgEarthNet.uav[39] utilizationEnergyOverdrawMaintenance 0
scalar OsgEarthNet.uav[39] utilizationCountMissions 34
scalar OsgEarthNet.uav[39] utilizationCountManeuversMission 493
scalar OsgEarthNet.uav[39] utilizationCountManeuversMaintenance 68
scalar OsgEarthNet.uav[39] utilizationCountChargeState 34
scalar OsgEarthNet.uav[39] utilizationCountOverdrawnAfterMission 0
scalar OsgEarthNet.uav[39] utilizationCountIdleState 34
scalar OsgEarthNet.uav[39] utilizationFail 0
scalar OsgEarthNet.uav[39] simulationTime 259200
scalar OsgEarthNet.uav[40] utilizationSecMission 12362.546838708
scalar OsgEarthNet.uav[40] utilizationSecMaintenance 10422.902771831
scalar OsgEarthNet.uav[40] utilizationSecCharge 81408.652663149
scalar OsgEarthNet.uav[40] utilizationSecIdle 155005.89672631
scalar OsgEarthNet.uav[40] utilizationEnergyMission 59281.334442139
scalar OsgEarthNet.uav[40] utilizationEnergyMaintenance 47952.263370514
scalar OsgEarthNet.uav[40] utilizationEnergyCharge 107774.61962891
scalar OsgEarthNet.uav[40] utilizationEnergyOverdrawMission 0
scalar OsgEarthNet.uav[40] utilizationEnergyOverdrawMaintenance 0
scalar OsgEarthNet.uav[40] utilizationCountMissions 24
scalar OsgEarthNet.uav[40] utilizationCountManeuversMission 382
scalar OsgEarthNet.uav[40] utilizationCountManeuversMaintenance 48
scalar OsgEarthNet.uav[40] utilizationCountChargeState 24
scalar OsgEarthNet.uav[40] utilizationCountOverdrawnAfterMission 0
scalar OsgEarthNet.uav[40] utilizationCountIdleState 23
scalar OsgEarthNet.uav[40] utilizationFail 0
scalar OsgEarthNet.uav[40] simulationTime 259200
scalar OsgEarthNet.uav[41] utilizationSecMission 26468.004432248
scalar OsgEarthNet.uav[41] utilizationSecMaintenance 24074.809218639
scalar OsgEarthNet.uav[41] utilizationSecCharge 181932.5734596
scalar OsgEarthNet.uav[41] utilizationSecIdle 26724.611889516
scalar OsgEarthNet.uav[41] utilizationEnergyMission 127103.13300705
scalar OsgEarthNet.uav[41] utilizationEnergyMaintenance 112368.23707962
scalar OsgEarthNet.uav[41] utilizationEnergyCharge 238578.97070312
scalar OsgEarthNet.uav[41] utilizationEnergyOverdrawMission 0
scalar OsgEarthNet.uav[41] utilizationEnergyOverdrawMaintenance 0
scalar OsgEarthNet.uav[41] utilizationCountMissions 54
scalar OsgEarthNet.uav[41] utilizationCountManeuversMission 823
scalar OsgEarthNet.uav[41] utilizationCountManeuversMaintenance 108
scalar OsgEarthNet.uav[41] utilizationCountChargeState 54
scalar OsgEarthNet.uav[41] utilizationCountOverdrawnAfterMission 0
scalar OsgEarthNet.uav[41] utilizationCountIdleState 54
scalar OsgEarthNet.uav[41] utilizationFail 0
scalar OsgEarthNet.uav[41] simulationTime 259200
scalar OsgEarthNet.uav[42] utilizationSecMission 23860.652362848
scalar OsgEarthNet.uav[42] utilizationSecMaintenance 21818.816963339
scalar OsgEarthNet.uav[42] utilizationSecCharge 166088.52667381
scalar OsgEarthNet.uav[42] utilizationSecIdle 47432.003
scalar OsgEarthNet.uav[42] utilizationEnergyMission 116646.10626602
scalar OsgEarthNet.uav[42] utilizationEnergyMaintenance 101106.0871582
scalar OsgEarthNet.uav[42] utilizationEnergyCharge 217981.96386719
scalar OsgEarthNet.uav[42] utilizationEnergyOverdrawMission 0
scalar OsgEarthNet.uav[42] utilizationEnergyOverdrawMaintenance 0
scalar OsgEarthNet.uav[42] utilizationCountMissions 49
scalar OsgEarthNet.uav[42] utilizationCountManeuversMission 746
scalar OsgEarthNet.uav[42] utilizationCountManeuversMaintenance 98
scalar OsgEarthNet.uav[42] utilizationCountChargeState 49
scalar OsgEarthNet.uav[42] utilizationCountOverdrawnAfterMission 0
scalar OsgEarthNet.uav[42] utilizationCountIdleState 49
scalar OsgEarthNet.uav[42] utilizationFail 0
scalar OsgEarthNet.uav[42] simulationTime 259200
scalar OsgEarthNet.uav[43] utilizationSecMission 3464.4570934061
scalar OsgEarthNet.uav[43] utilizationSecMaintenance 2880.5542277991
scalar OsgEarthNet.uav[43] utilizationSecCharge 20160
scalar OsgEarthNet.uav[43] utilizationSecIdle 232694.98767879
scalar OsgEarthNet.uav[43] utilizationEnergyMission 16201.142788365
scalar OsgEarthNet.uav[43] utilizationEnergyMaintenance 13450.838420868
scalar OsgEarthNet.uav[43] utilizationEnergyCharge 26406.005126953
scalar OsgEarthNet.uav[43] utilizationEnergyOverdrawMission 0
scalar OsgEarthNet.uav[43] utilizationEnergyOverdrawMaintenance 0
scalar OsgEarthNet.uav[43] utilizationCountMissions 6
scalar OsgEarthNet.uav[43] utilizationCountManeuversMission 80
scalar OsgEarthNet.uav[43] utilizationCountManeuversMaintenance 13
scalar OsgEarthNet.uav[43] utilizationCountChargeState 6
scalar OsgEarthNet.uav[43] utilizationCountOverdrawnAfterMission 0
scalar OsgEarthNet.uav[43] utilizationCountIdleState 7
scalar OsgEarthNet.uav[43] utilizationFail 0
scalar OsgEarthNet.uav[43] simulationTime 259200
scalar OsgEarthNet.uav[44] utilizationSecMission 26613.602884636
scalar OsgEarthNet.uav[44] utilizationSecMaintenance 23632.405515258
scalar OsgEarthNet.uav[44] utilizationSecCharge 182295.53432293
scalar OsgEarthNet.uav[44] utilizationSecIdle 26658.456277181
scalar OsgEarthNet.uav[44] utilizationEnergyMission 128854.53837967
scalar OsgEarthNet.uav[44] utilizationEnergyMaintenance 110085.81714249
scalar OsgEarthNet.uav[44] utilizationEnergyCharge 239216.22094727
scalar OsgEarthNet.uav[44] utilizationEnergyOverdrawMission 0
scalar OsgEarthNet.uav[44] utilizationEnergyOverdrawMaintenance 0
scalar OsgEarthNet.uav[44] utilizationCountMissions 54
scalar OsgEarthNet.uav[44] utilizationCountManeuversMission 836
scalar OsgEarthNet.uav[44] utilizationCountManeuversMaintenance 108
scalar OsgEarthNet.uav[44] utilizationCountChargeState 54
scalar OsgEarthNet.uav[44] utilizationCountOverdrawnAfterMission 0
scalar OsgEarthNet.uav[44] utilizationCountIdleState 54
scalar OsgEarthNet.uav[44] utilizationFail 0
scalar OsgEarthNet.uav[44] simulationTime 259200
scalar OsgEarthNet.uav[45] utilizationSecMission 24650.097270747
scalar OsgEarthNet.uav[45] utilizationSecMaintenance 20737.490248827
scalar OsgEarthNet.uav[45] utilizationSecCharge 161380.40648043
scalar OsgEarthNet.uav[45] utilizationSecIdle 52432.005
scalar OsgEarthNet.uav[45] utilizationEnergyMission 117429.486763
scalar OsgEarthNet.uav[45] utilizationEnergyMaintenance 95570.394523621
scalar OsgEarthNet.uav[45] utilizationEnergyCharge 212313.29589844
scalar OsgEarthNet.uav[45] utilizationEnergyOverdrawMission 0
scalar OsgEarthNet.uav[45] utilizationEnergyOverdrawMaintenance 0
scalar OsgEarthNet.uav[45] utilizationCountMissions 48
scalar OsgEarthNet.uav[45] utilizationCountManeuversMission 692
scalar OsgEarthNet.uav[45] utilizationCountManeuversMaintenance 96
scalar OsgEarthNet.uav[45] utilizationCountChargeState 48
scalar OsgEarthNet.uav[45] utilizationCountOverdrawnAfterMission 0
scalar OsgEarthNet.uav[45] utilizationCountIdleState 47
scalar OsgEarthNet.uav[45] utilizationFail 0
scalar OsgEarthNet.uav[45] simulationTime 259200
scalar OsgEarthNet.uav[46] utilizationSecMission 20841.799663741
scalar OsgEarthNet.uav[46] utilizationSecMaintenance 18287.445688741
scalar OsgEarthNet.uav[46] utilizationSecCharge 143080
scalar OsgEarthNet.uav[46] utilizationSecIdle 76990.753647518
scalar OsgEarthNet.uav[46] utilizationEnergyMission 100316.51882935
scalar OsgEarthNet.uav[46] utilizationEnergyMaintenance 86882.783390045
scalar OsgEarthNet.uav[46] utilizationEnergyCharge 187478.07543945
scalar OsgEarthNet.uav[46] utilizationEnergyOverdrawMission 0
scalar OsgEarthNet.uav[46] utilizationEnergyOverdrawMaintenance 0
scalar OsgEarthNet.uav[46] utilizationCountMissions 42
scalar OsgEarthNet.uav[46] utilizationCountManeuversMission 637
scalar OsgEarthNet.uav[46] utilizationCountManeuversMaintenance 84
scalar OsgEarthNet.uav[46] utilizationCountChargeState 42
scalar OsgEarthNet.uav[46] utilizationCountOverdrawnAfterMission 0
scalar OsgEarthNet.uav[46] utilizationCountIdleState 42
scalar OsgEarthNet.uav[46] utilizationFail 0
scalar OsgEarthNet.uav[46] simulationTime 259200
scalar OsgEarthNet.uav[47] utilizationSecMission 5687.9175487797
scalar OsgEarthNet.uav[47] utilizationSecMaintenance 7155.08019343
scalar OsgEarthNet.uav[47] utilizationSecCharge 46720
scalar OsgEarthNet.uav[47] utilizationSecIdle 199637.00125779
scalar OsgEarthNet.uav[47] utilizationEnergyMission 27748.846656799
scalar OsgEarthNet.uav[47] utilizationEnergyMaintenance 33124.209877014
scalar OsgEarthNet.uav[47] utilizationEnergyCharge 61060.733886719
scalar OsgEarthNet.uav[47] utilizationEnergyOverdrawMission 0
scalar OsgEarthNet.uav[47] utilizationEnergyOverdrawMaintenance 0
scalar OsgEarthNet.uav[47] utilizationCountMissions 14
scalar OsgEarthNet.uav[47] utilizationCountManeuversMission 242
scalar OsgEarthNet.uav[47] utilizationCountManeuversMaintenance 28
scalar OsgEarthNet.uav[47] utilizationCountChargeState 14
scalar OsgEarthNet.uav[47] utilizationCountOverdrawnAfterMission 0
scalar OsgEarthNet.uav[47] utilizationCountIdleState 14
scalar OsgEarthNet.uav[47] utilizationFail 0
scalar OsgEarthNet.uav[47] simulationTime 259200
scalar OsgEarthNet.uav[48] utilizationSecMission 24683.511385677
scalar OsgEarthNet.uav[48] utilizationSecMaintenance 23909.586377377
scalar OsgEarthNet.uav[48] utilizationSecCharge 173664.89723695
scalar OsgEarthNet.uav[48] utilizationSecIdle 36942.004
scalar OsgEarthNet.uav[48] utilizationEnergyMission 120027.27323151
scalar OsgEarthNet.uav[48] utilizationEnergyMaintenance 111138.62456894
scalar OsgEarthNet.uav[48] utilizationEnergyCharge 227174.66937256
scalar OsgEarthNet.uav[48] utilizationEnergyOverdrawMission 0
scalar OsgEarthNet.uav[48] utilizationEnergyOverdrawMaintenance 0
scalar OsgEarthNet.uav[48] utilizationCountMissions 52
scalar OsgEarthNet.uav[48] utilizationCountManeuversMission 797
scalar OsgEarthNet.uav[48] utilizationCountManeuversMaintenance 104
scalar OsgEarthNet.uav[48] utilizationCountChargeState 52
scalar OsgEarthNet.uav[48] utilizationCountOverdrawnAfterMission 0
scalar OsgEarthNet.uav[48] utilizationCountIdleState 52
scalar OsgEarthNet.uav[48] utilizationFail 0
scalar OsgEarthNet.uav[48] simulationTime 259200
scalar OsgEarthNet.uav[49] utilizationSecMission 23976.049021472
scalar OsgEarthNet.uav[49] utilizationSecMaintenance 18211.875959076
scalar OsgEarthNet.uav[49] utilizationSecCharge 153370
scalar OsgEarthNet.uav[49] utilizationSecIdle 63642.074019452
scalar OsgEarthNet.uav[49] utilizationEnergyMission 115441.05029297
scalar OsgEarthNet.uav[49] utilizationEnergyMaintenance 85116.227745056
scalar OsgEarthNet.uav[49] utilizationEnergyCharge 201378.75488281
scalar OsgEarthNet.uav[49] utilizationEnergyOverdrawMission 0
scalar OsgEarthNet.uav[49] utilizationEnergyOverdrawMaintenance 0
scalar OsgEarthNet.uav[49] utilizationCountMissions 45
scalar OsgEarthNet.uav[49] utilizationCountManeuversMission 707
scalar OsgEarthNet.uav[49] utilizationCountManeuversMaintenance 90
scalar OsgEarthNet.uav[49] utilizationCountChargeState 45
scalar OsgEarthNet.uav[49] utilizationCountOverdrawnAfterMission 0
scalar OsgEarthNet.uav[49] utilizationCountIdleState 44
scalar OsgEarthNet.uav[49] utilizationFail 0
scalar OsgEarthNet.uav[49] simulationTime 259200
scalar OsgEarthNet.uav[50] utilizationSecMission 8228.9368858204
scalar OsgEarthNet.uav[50] utilizationSecMaintenance 4563.3396448454
scalar OsgEarthNet.uav[50] utilizationSecCharge 45070
scalar OsgEarthNet.uav[50] utilizationSecIdle 201337.72246933
scalar OsgEarthNet.uav[50] utilizationEnergyMission 38013.069747925
scalar OsgEarthNet.uav[50] utilizationEnergyMaintenance 21110.091499329
scalar OsgEarthNet.uav[50] utilizationEnergyCharge 59538.281738281
scalar OsgEarthNet.uav[50] utilizationEnergyOverdrawMission 0
scalar OsgEarthNet.uav[50] utilizationEnergyOverdrawMaintenance 0
scalar OsgEarthNet.uav[50] utilizationCountMissions 13
scalar OsgEarthNet.uav[50] utilizationCountManeuversMission 175
scalar OsgEarthNet.uav[50] utilizationCountManeuversMaintenance 26
scalar OsgEarthNet.uav[50] utilizationCountChargeState 13
scalar OsgEarthNet.uav[50] utilizationCountOverdrawnAfterMission 0
scalar OsgEarthNet.uav[50] utilizationCountIdleState 14
scalar OsgEarthNet.uav[50] utilizationFail 0
scalar OsgEarthNet.uav[50] simulationTime 259200
scalar OsgEarthNet.uav[51] utilizationSecMission 22862.251781531
scalar OsgEarthNet.uav[51] utilizationSecMaintenance 17040.227400289
scalar OsgEarthNet.uav[51] utilizationSecCharge 143135.50981818
scalar OsgEarthNet.uav[51] utilizationSecIdle 76162.01
scalar OsgEarthNet.uav[51] utilizationEnergyMission 112942.84348297
scalar OsgEarthNet.uav[51] utilizationEnergyMaintenance 79834.022735596
scalar OsgEarthNet.uav[51] utilizationEnergyCharge 188786.70349121
scalar OsgEarthNet.uav[51] utilizationEnergyOverdrawMission 0
scalar OsgEarthNet.uav[51] utilizationEnergyOverdrawMaintenance 0
scalar OsgEarthNet.uav[51] utilizationCountMissions 43
scalar OsgEarthNet.uav[51] utilizationCountManeuversMission 774
scalar OsgEarthNet.uav[51] utilizationCountManeuversMaintenance 86
scalar OsgEarthNet.uav[51] utilizationCountChargeState 43
scalar OsgEarthNet.uav[51] utilizationCountOverdrawnAfterMission 0
scalar OsgEarthNet.uav[51] utilizationCountIdleState 41
scalar OsgEarthNet.uav[51] utilizationFail 0
scalar OsgEarthNet.uav[51] simulationTime 259200
scalar OsgEarthNet.uav[52] utilizationSecMission 23987.340288071
scalar OsgEarthNet.uav[52] utilizationSecMaintenance 20247.155614276
scalar OsgEarthNet.uav[52] utilizationSecCharge 158282.04205488
scalar OsgEarthNet.uav[52] utilizationSecIdle 56683.461042776
scalar OsgEarthNet.uav[52] utilizationEnergyMission 116105.48686218
scalar OsgEarthNet.uav[52] utilizationEnergyMaintenance 93602.809928894
scalar OsgEarthNet.uav[52] utilizationEnergyCharge 208401.63549805
scalar OsgEarthNet.uav[52] utilizationEnergyOverdrawMission 0
scalar OsgEarthNet.uav[52] utilizationEnergyOverdrawMaintenance 84.194869995117
scalar OsgEarthNet.uav[52] utilizationCountMissions 47
scalar OsgEarthNet.uav[52] utilizationCountManeuversMission 782
scalar OsgEarthNet.uav[52] utilizationCountManeuversMaintenance 94
scalar OsgEarthNet.uav[52] utilizationCountChargeState 47
scalar OsgEarthNet.uav[52] utilizationCountOverdrawnAfterMission 1
scalar OsgEarthNet.uav[52] utilizationCountIdleState 46
scalar OsgEarthNet.uav[52] utilizationFail 0
scalar OsgEarthNet.uav[52] simulationTime 259200
scalar OsgEarthNet.uav[53] utilizationSecMission 27944.857278144
scalar OsgEarthNet.uav[53] utilizationSecMaintenance 23166.154623224
scalar OsgEarthNet.uav[53] utilizationSecCharge 185496.98609863
scalar OsgEarthNet.uav[53] utilizationSecIdle 22592.001
scalar OsgEarthNet.uav[53] utilizationEnergyMission 136868.44312286
scalar OsgEarthNet.uav[53] utilizationEnergyMaintenance 107497.67774963
scalar OsgEarthNet.uav[53] utilizationEnergyCharge 242397.73950195
scalar OsgEarthNet.uav[53] utilizationEnergyOverdrawMission 0
scalar OsgEarthNet.uav[53] utilizationEnergyOverdrawMaintenance 0
scalar OsgEarthNet.uav[53] utilizationCountMissions 55
scalar OsgEarthNet.uav[53] utilizationCountManeuversMission 908
scalar OsgEarthNet.uav[53] utilizationCountManeuversMaintenance 110
scalar OsgEarthNet.uav[53] utilizationCountChargeState 55
scalar OsgEarthNet.uav[53] utilizationCountOverdrawnAfterMission 0
scalar OsgEarthNet.uav[53] utilizationCountIdleState 54
scalar OsgEarthNet.uav[53] utilizationFail 0
scalar OsgEarthNet.uav[53] simulationTime 259200
scalar OsgEarthNet.uav[54] utilizationSecMission 13232.924853552
scalar OsgEarthNet.uav[54] utilizationSecMaintenance 11184.386803873
scalar OsgEarthNet.uav[54] utilizationSecCharge 89080
scalar OsgEarthNet.uav[54] utilizationSecIdle 145702.68734258
scalar OsgEarthNet.uav[54] utilizationEnergyMission 64207.010173798
scalar OsgEarthNet.uav[54] utilizationEnergyMaintenance 52096.643451691
scalar OsgEarthNet.uav[54] utilizationEnergyCharge 117408.84375
scalar OsgEarthNet.uav[54] utilizationEnergyOverdrawMission 0
scalar OsgEarthNet.uav[54] utilizationEnergyOverdrawMaintenance 0
scalar OsgEarthNet.uav[54] utilizationCountMissions 26
scalar OsgEarthNet.uav[54] utilizationCountManeuversMission 416
scalar OsgEarthNet.uav[54] utilizationCountManeuversMaintenance 52
scalar OsgEarthNet.uav[54] utilizationCountChargeState 26
scalar OsgEarthNet.uav[54] utilizationCountOverdrawnAfterMission 0
scalar OsgEarthNet.uav[54] utilizationCountIdleState 26
scalar OsgEarthNet.uav[54] utilizationFail 0
scalar OsgEarthNet.uav[54] simulationTime 259200
scalar OsgEarthNet.uav[55] utilizationSecMission 17253.034401604
scalar OsgEarthNet.uav[55] utilizationSecMaintenance 15613.928521651
scalar OsgEarthNet.uav[55] utilizationSecCharge 118590
scalar OsgEarthNet.uav[55] utilizationSecIdle 107743.03607674
scalar OsgEarthNet.uav[55] utilizationEnergyMission 84734.325164795
scalar OsgEarthNet.uav[55] utilizationEnergyMaintenance 72766.974903107
scalar OsgEarthNet.uav[55] utilizationEnergyCharge 155588.0703125
scalar OsgEarthNet.uav[55] utilizationEnergyOverdrawMission 0
scalar OsgEarthNet.uav[55] utilizationEnergyOverdrawMaintenance 0
scalar OsgEarthNet.uav[55] utilizationCountMissions 35
scalar OsgEarthNet.uav[55] utilizationCountManeuversMission 546
scalar OsgEarthNet.uav[55] utilizationCountManeuversMaintenance 70
scalar OsgEarthNet.uav[55] utilizationCountChargeState 35
scalar OsgEarthNet.uav[55] utilizationCountOverdrawnAfterMission 0
scalar OsgEarthNet.uav[55] utilizationCountIdleState 34
scalar OsgEarthNet.uav[55] utilizationFail 0
scalar OsgEarthNet.uav[55] simulationTime 259200
scalar OsgEarthNet.uav[56] utilizationSecMission 26775.016733044
scalar OsgEarthNet.uav[56] utilizationSecMaintenance 23205.113762151
scalar OsgEarthNet.uav[56] utilizationSecCharge 181727.8645048
scalar OsgEarthNet.uav[56] utilizationSecIdle 27492.004
scalar OsgEarthNet.uav[56] utilizationEnergyMission 131592.78989792
scalar OsgEarthNet.uav[56] utilizationEnergyMaintenance 107160.01539993
scalar OsgEarthNet.uav[56] utilizationEnergyCharge 237790.37475586
scalar OsgEarthNet.uav[56] utilizationEnergyOverdrawMission 0
scalar OsgEarthNet.uav[56] utilizationEnergyOverdrawMaintenance 0
scalar OsgEarthNet.uav[56] utilizationCountMissions 54
scalar OsgEarthNet.uav[56] utilizationCountManeuversMission 862
scalar OsgEarthNet.uav[56] utilizationCountManeuversMaintenance 108
scalar OsgEarthNet.uav[56] utilizationCountChargeState 54
scalar OsgEarthNet.uav[56] utilizationCountOverdrawnAfterMission 0
scalar OsgEarthNet.uav[56] utilizationCountIdleState 54
scalar OsgEarthNet.uav[56] utilizationFail 0
scalar OsgEarthNet.uav[56] simulationTime 259200
scalar OsgEarthNet.uav[57] utilizationSecMission 20091.673754187
scalar OsgEarthNet.uav[57] utilizationSecMaintenance 18825.262105491
scalar OsgEarthNet.uav[57] utilizationSecCharge 140870
scalar OsgEarthNet.uav[57] utilizationSecIdle 79413.063140321
scalar OsgEarthNet.uav[57] utilizationEnergyMission 99644.810207367
scalar OsgEarthNet.uav[57] utilizationEnergyMaintenance 87913.775951385
scalar OsgEarthNet.uav[57] utilizationEnergyCharge 186128.04931641
scalar OsgEarthNet.uav[57] utilizationEnergyOverdrawMission 0
scalar OsgEarthNet.uav[57] utilizationEnergyOverdrawMaintenance 121.98541259766
scalar OsgEarthNet.uav[57] utilizationCountMissions 41
scalar OsgEarthNet.uav[57] utilizationCountManeuversMission 634
scalar OsgEarthNet.uav[57] utilizationCountManeuversMaintenance 81
scalar OsgEarthNet.uav[57] utilizationCountChargeState 41
scalar OsgEarthNet.uav[57] utilizationCountOverdrawnAfterMission 1
scalar OsgEarthNet.uav[57] utilizationCountIdleState 37
scalar OsgEarthNet.uav[57] utilizationFail 0
scalar OsgEarthNet.uav[57] simulationTime 259200
scalar OsgEarthNet.uav[58] utilizationSecMission 22904.078878564
scalar OsgEarthNet.uav[58] utilizationSecMaintenance 17338.37298157
scalar OsgEarthNet.uav[58] utilizationSecCharge 140771.19691904
scalar OsgEarthNet.uav[58] utilizationSecIdle 78186.350220821
scalar OsgEarthNet.uav[58] utilizationEnergyMission 109773.43486023
scalar OsgEarthNet.uav[58] utilizationEnergyMaintenance 80943.728439331
scalar OsgEarthNet.uav[58] utilizationEnergyCharge 186391.32177734
scalar OsgEarthNet.uav[58] utilizationEnergyOverdrawMission 0
scalar OsgEarthNet.uav[58] utilizationEnergyOverdrawMaintenance 0
scalar OsgEarthNet.uav[58] utilizationCountMissions 42
scalar OsgEarthNet.uav[58] utilizationCountManeuversMission 622
scalar OsgEarthNet.uav[58] utilizationCountManeuversMaintenance 84
scalar OsgEarthNet.uav[58] utilizationCountChargeState 42
scalar OsgEarthNet.uav[58] utilizationCountOverdrawnAfterMission 0
scalar OsgEarthNet.uav[58] utilizationCountIdleState 36
scalar OsgEarthNet.uav[58] utilizationFail 0
scalar OsgEarthNet.uav[58] simulationTime 259200
scalar OsgEarthNet.uav[59] utilizationSecMission 22479.571649661
scalar OsgEarthNet.uav[59] utilizationSecMaintenance 20380.877720281
scalar OsgEarthNet.uav[59] utilizationSecCharge 155870
scalar OsgEarthNet.uav[59] utilizationSecIdle 60469.549630058
scalar OsgEarthNet.uav[59] utilizationEnergyMission 108162.19990921
scalar OsgEarthNet.uav[59] utilizationEnergyMaintenance 94447.537540436
scalar OsgEarthNet.uav[59] utilizationEnergyCharge 204262.23608398
scalar OsgEarthNet.uav[59] utilizationEnergyOverdrawMission 0
scalar OsgEarthNet.uav[59] utilizationEnergyOverdrawMaintenance 0
scalar OsgEarthNet.uav[59] utilizationCountMissions 46
scalar OsgEarthNet.uav[59] utilizationCountManeuversMission 723
scalar OsgEarthNet.uav[59] utilizationCountManeuversMaintenance 92
scalar OsgEarthNet.uav[59] utilizationCountChargeState 46
scalar OsgEarthNet.uav[59] utilizationCountOverdrawnAfterMission 0
scalar OsgEarthNet.uav[59] utilizationCountIdleState 44
scalar OsgEarthNet.uav[59] utilizationFail 0
scalar OsgEarthNet.uav[59] simulationTime 259200
scalar OsgEarthNet.uav[60] utilizationSecMission 26309.844828266
scalar OsgEarthNet.uav[60] utilizationSecMaintenance 21614.47090164
scalar OsgEarthNet.uav[60] utilizationSecCharge 174050
scalar OsgEarthNet.uav[60] utilizationSecIdle 37225.683270095
scalar OsgEarthNet.uav[60] utilizationEnergyMission 127358.69838333
scalar OsgEarthNet.uav[60] utilizationEnergyMaintenance 101708.58501816
scalar OsgEarthNet.uav[60] utilizationEnergyCharge 229903.60449219
scalar OsgEarthNet.uav[60] utilizationEnergyOverdrawMission 0
scalar OsgEarthNet.uav[60] utilizationEnergyOverdrawMaintenance 83.042129516602
scalar OsgEarthNet.uav[60] utilizationCountMissions 51
scalar OsgEarthNet.uav[60] utilizationCountManeuversMission 824
scalar OsgEarthNet.uav[60] utilizationCountManeuversMaintenance 102
scalar OsgEarthNet.uav[60] utilizationCountChargeState 51
scalar OsgEarthNet.uav[60] utilizationCountOverdrawnAfterMission 1
scalar OsgEarthNet.uav[60] utilizationCountIdleState 47
scalar OsgEarthNet.uav[60] utilizationFail 0
scalar OsgEarthNet.uav[60] simulationTime 259200
scalar OsgEarthNet.uav[61] utilizationSecMission 22961.276792695
scalar OsgEarthNet.uav[61] utilizationSecMaintenance 22006.065510361
scalar OsgEarthNet.uav[61] utilizationSecCharge 162550
scalar OsgEarthNet.uav[61] utilizationSecIdle 51682.656696944
scalar OsgEarthNet.uav[61] utilizationEnergyMission 113608.06077957
scalar OsgEarthNet.uav[61] utilizationEnergyMaintenance 102698.55096817
scalar OsgEarthNet.uav[61] utilizationEnergyCharge 215476.46899414
scalar OsgEarthNet.uav[61] utilizationEnergyOverdrawMission 0
scalar OsgEarthNet.uav[61] utilizationEnergyOverdrawMaintenance 330.48129272461
scalar OsgEarthNet.uav[61] utilizationCountMissions 48
scalar OsgEarthNet.uav[61] utilizationCountManeuversMission 785
scalar OsgEarthNet.uav[61] utilizationCountManeuversMaintenance 96
scalar OsgEarthNet.uav[61] utilizationCountChargeState 48
scalar OsgEarthNet.uav[61] utilizationCountOverdrawnAfterMission 1
scalar OsgEarthNet.uav[61] utilizationCountIdleState 40
scalar OsgEarthNet.uav[61] utilizationFail 0
scalar OsgEarthNet.uav[61] simulationTime 259200
scalar OsgEarthNet.uav[62] utilizationSecMission 23994.803933961
scalar OsgEarthNet.uav[62] utilizationSecMaintenance 22383.195066039
scalar OsgEarthNet.uav[62] utilizationSecCharge 165150
scalar OsgEarthNet.uav[62] utilizationSecIdle 47672
scalar OsgEarthNet.uav[62] utilizationEnergyMission 115370.9924202
scalar OsgEarthNet.uav[62] utilizationEnergyMaintenance 103922.44929805
scalar OsgEarthNet.uav[62] utilizationEnergyCharge 218353.29907227
scalar OsgEarthNet.uav[62] utilizationEnergyOverdrawMission 0
scalar OsgEarthNet.uav[62] utilizationEnergyOverdrawMaintenance 0
scalar OsgEarthNet.uav[62] utilizationCountMissions 49
scalar OsgEarthNet.uav[62] utilizationCountManeuversMission 735
scalar OsgEarthNet.uav[62] utilizationCountManeuversMaintenance 99
scalar OsgEarthNet.uav[62] utilizationCountChargeState 49
scalar OsgEarthNet.uav[62] utilizationCountOverdrawnAfterMission 0
scalar OsgEarthNet.uav[62] utilizationCountIdleState 41
scalar OsgEarthNet.uav[62] utilizationFail 0
scalar OsgEarthNet.uav[62] simulationTime 259200
scalar OsgEarthNet.uav[63] utilizationSecMission 23772.981545275
scalar OsgEarthNet.uav[63] utilizationSecMaintenance 22880.674294825
scalar OsgEarthNet.uav[63] utilizationSecCharge 165531.09025451
scalar OsgEarthNet.uav[63] utilizationSecIdle 47015.252905395
scalar OsgEarthNet.uav[63] utilizationEnergyMission 113407.00408936
scalar OsgEarthNet.uav[63] utilizationEnergyMaintenance 105809.88755035
scalar OsgEarthNet.uav[63] utilizationEnergyCharge 217775.32226562
scalar OsgEarthNet.uav[63] utilizationEnergyOverdrawMission 0
scalar OsgEarthNet.uav[63] utilizationEnergyOverdrawMaintenance 0
scalar OsgEarthNet.uav[63] utilizationCountMissions 50
scalar OsgEarthNet.uav[63] utilizationCountManeuversMission 708
scalar OsgEarthNet.uav[63] utilizationCountManeuversMaintenance 100
scalar OsgEarthNet.uav[63] utilizationCountChargeState 50
scalar OsgEarthNet.uav[63] utilizationCountOverdrawnAfterMission 0
scalar OsgEarthNet.uav[63] utilizationCountIdleState 43
scalar OsgEarthNet.uav[63] utilizationFail 0
scalar OsgEarthNet.uav[63] simulationTime 259200
scalar OsgEarthNet.uav[64] utilizationSecMission 21985.1360203
scalar OsgEarthNet.uav[64] utilizationSecMaintenance 25352.274791005
scalar OsgEarthNet.uav[64] utilizationSecCharge 170147.1401
scalar OsgEarthNet.uav[64] utilizationSecIdle 41715.448088691
scalar OsgEarthNet.uav[64] utilizationEnergyMission 106046.22964478
scalar OsgEarthNet.uav[64] utilizationEnergyMaintenance 119171.31324768
scalar OsgEarthNet.uav[64] utilizationEnergyCharge 224395.81030273
scalar OsgEarthNet.uav[64] utilizationEnergyOverdrawMission 0
scalar OsgEarthNet.uav[64] utilizationEnergyOverdrawMaintenance 0
scalar OsgEarthNet.uav[64] utilizationCountMissions 51
scalar OsgEarthNet.uav[64] utilizationCountManeuversMission 754
scalar OsgEarthNet.uav[64] utilizationCountManeuversMaintenance 102
scalar OsgEarthNet.uav[64] utilizationCountChargeState 51
scalar OsgEarthNet.uav[64] utilizationCountOverdrawnAfterMission 0
scalar OsgEarthNet.uav[64] utilizationCountIdleState 42
scalar OsgEarthNet.uav[64] utilizationFail 0
scalar OsgEarthNet.uav[64] simulationTime 259200
scalar OsgEarthNet.uav[65] utilizationSecMission 27560.611257121
scalar OsgEarthNet.uav[65] utilizationSecMaintenance 21598.330473593
scalar OsgEarthNet.uav[65] utilizationSecCharge 176809.05026929
scalar OsgEarthNet.uav[65] utilizationSecIdle 33232.007
scalar OsgEarthNet.uav[65] utilizationEnergyMission 133623.44948578
scalar OsgEarthNet.uav[65] utilizationEnergyMaintenance 100100.72773743
scalar OsgEarthNet.uav[65] utilizationEnergyCharge 232862.48657227
scalar OsgEarthNet.uav[65] utilizationEnergyOverdrawMission 0
scalar OsgEarthNet.uav[65] utilizationEnergyOverdrawMaintenance 0
[...]
scalar OsgEarthNet.uav[81] utilizationCountMissions 59
scalar OsgEarthNet.uav[81] utilizationCountManeuversMission 838
scalar OsgEarthNet.uav[81] utilizationCountManeuversMaintenance 118
scalar OsgEarthNet.uav[81] utilizationCountChargeState 59
scalar OsgEarthNet.uav[81] utilizationCountOverdrawnAfterMission 0
scalar OsgEarthNet.uav[81] utilizationCountIdleState 25
scalar OsgEarthNet.uav[81] utilizationFail 0
scalar OsgEarthNet.uav[81] simulationTime 259200
scalar OsgEarthNet.uav[82] utilizationSecMission 28979.232160876
scalar OsgEarthNet.uav[82] utilizationSecMaintenance 26486.544765342
scalar OsgEarthNet.uav[82] utilizationSecCharge 194622.76911507
scalar OsgEarthNet.uav[82] utilizationSecIdle 9111.4529587171
scalar OsgEarthNet.uav[82] utilizationEnergyMission 140886.80233002
scalar OsgEarthNet.uav[82] utilizationEnergyMaintenance 121766.68542099
scalar OsgEarthNet.uav[82] utilizationEnergyCharge 260665.16162109
scalar OsgEarthNet.uav[82] utilizationEnergyOverdrawMission 0
scalar OsgEarthNet.uav[82] utilizationEnergyOverdrawMaintenance 0
scalar OsgEarthNet.uav[82] utilizationCountMissions 59
scalar OsgEarthNet.uav[82] utilizationCountManeuversMission 912
scalar OsgEarthNet.uav[82] utilizationCountManeuversMaintenance 118
scalar OsgEarthNet.uav[82] utilizationCountChargeState 59
scalar OsgEarthNet.uav[82] utilizationCountOverdrawnAfterMission 0
scalar OsgEarthNet.uav[82] utilizationCountIdleState 31
scalar OsgEarthNet.uav[82] utilizationFail 0
scalar OsgEarthNet.uav[82] simulationTime 259200
scalar OsgEarthNet.uav[83] utilizationSecMission 28666.447071182
scalar OsgEarthNet.uav[83] utilizationSecMaintenance 26367.200733403
scalar OsgEarthNet.uav[83] utilizationSecCharge 193166.1062956
scalar OsgEarthNet.uav[83] utilizationSecIdle 11000.244899813
scalar OsgEarthNet.uav[83] utilizationEnergyMission 137899.9131012
scalar OsgEarthNet.uav[83] utilizationEnergyMaintenance 122163.42607498
scalar OsgEarthNet.uav[83] utilizationEnergyCharge 259403.76831055
scalar OsgEarthNet.uav[83] utilizationEnergyOverdrawMission 0
scalar OsgEarthNet.uav[83] utilizationEnergyOverdrawMaintenance 0
scalar OsgEarthNet.uav[83] utilizationCountMissions 59
scalar OsgEarthNet.uav[83] utilizationCountManeuversMission 818
scalar OsgEarthNet.uav[83] utilizationCountManeuversMaintenance 118
scalar OsgEarthNet.uav[83] utilizationCountChargeState 59
scalar OsgEarthNet.uav[83] utilizationCountOverdrawnAfterMission 0
scalar OsgEarthNet.uav[83] utilizationCountIdleState 32
scalar OsgEarthNet.uav[83] utilizationFail 0
scalar OsgEarthNet.uav[83] simulationTime 259200
scalar OsgEarthNet.uav[84] utilizationSecMission 29940.351054165
scalar OsgEarthNet.uav[84] utilizationSecMaintenance 23942.087919799
scalar OsgEarthNet.uav[84] utilizationSecCharge 191095.54902604
scalar OsgEarthNet.uav[84] utilizationSecIdle 14222.011
scalar OsgEarthNet.uav[84] utilizationEnergyMission 145280.50667953
scalar OsgEarthNet.uav[84] utilizationEnergyMaintenance 112018.12426758
scalar OsgEarthNet.uav[84] utilizationEnergyCharge 256521.07397461
scalar OsgEarthNet.uav[84] utilizationEnergyOverdrawMission 0
scalar OsgEarthNet.uav[84] utilizationEnergyOverdrawMaintenance 0
scalar OsgEarthNet.uav[84] utilizationCountMissions 58
scalar OsgEarthNet.uav[84] utilizationCountManeuversMission 958
scalar OsgEarthNet.uav[84] utilizationCountManeuversMaintenance 116
scalar OsgEarthNet.uav[84] utilizationCountChargeState 58
scalar OsgEarthNet.uav[84] utilizationCountOverdrawnAfterMission 0
scalar OsgEarthNet.uav[84] utilizationCountIdleState 32
scalar OsgEarthNet.uav[84] utilizationFail 0
scalar OsgEarthNet.uav[84] simulationTime 259200
scalar OsgEarthNet.uav[85] utilizationSecMission 28647.712971661
scalar OsgEarthNet.uav[85] utilizationSecMaintenance 27242.222142947
scalar OsgEarthNet.uav[85] utilizationSecCharge 194738.05788539
scalar OsgEarthNet.uav[85] utilizationSecIdle 8572.006
scalar OsgEarthNet.uav[85] utilizationEnergyMission 139386.73927307
scalar OsgEarthNet.uav[85] utilizationEnergyMaintenance 126808.82231522
scalar OsgEarthNet.uav[85] utilizationEnergyCharge 263780.46948242
scalar OsgEarthNet.uav[85] utilizationEnergyOverdrawMission 0
scalar OsgEarthNet.uav[85] utilizationEnergyOverdrawMaintenance 0
scalar OsgEarthNet.uav[85] utilizationCountMissions 59
scalar OsgEarthNet.uav[85] utilizationCountManeuversMission 832
scalar OsgEarthNet.uav[85] utilizationCountManeuversMaintenance 118
scalar OsgEarthNet.uav[85] utilizationCountChargeState 59
scalar OsgEarthNet.uav[85] utilizationCountOverdrawnAfterMission 0
scalar OsgEarthNet.uav[85] utilizationCountIdleState 26
scalar OsgEarthNet.uav[85] utilizationFail 0
scalar OsgEarthNet.uav[85] simulationTime 259200
scalar OsgEarthNet.uav[86] utilizationSecMission 29151.648101293
scalar OsgEarthNet.uav[86] utilizationSecMaintenance 25866.837237757
scalar OsgEarthNet.uav[86] utilizationSecCharge 194370
scalar OsgEarthNet.uav[86] utilizationSecIdle 9811.5136609497
scalar OsgEarthNet.uav[86] utilizationEnergyMission 140016.54849625
scalar OsgEarthNet.uav[86] utilizationEnergyMaintenance 119519.96675115
scalar OsgEarthNet.uav[86] utilizationEnergyCharge 259722.4375
scalar OsgEarthNet.uav[86] utilizationEnergyOverdrawMission 0
scalar OsgEarthNet.uav[86] utilizationEnergyOverdrawMaintenance 199.81770324707
scalar OsgEarthNet.uav[86] utilizationCountMissions 58
scalar OsgEarthNet.uav[86] utilizationCountManeuversMission 915
scalar OsgEarthNet.uav[86] utilizationCountManeuversMaintenance 117
scalar OsgEarthNet.uav[86] utilizationCountChargeState 58
scalar OsgEarthNet.uav[86] utilizationCountOverdrawnAfterMission 1
scalar OsgEarthNet.uav[86] utilizationCountIdleState 34
scalar OsgEarthNet.uav[86] utilizationFail 0
scalar OsgEarthNet.uav[86] simulationTime 259200
scalar OsgEarthNet.uav[87] utilizationSecMission 28013.326880768
scalar OsgEarthNet.uav[87] utilizationSecMaintenance 26602.913099785
scalar OsgEarthNet.uav[87] utilizationSecCharge 193640
scalar OsgEarthNet.uav[87] utilizationSecIdle 10943.759019447
scalar OsgEarthNet.uav[87] utilizationEnergyMission 135115.12861633
scalar OsgEarthNet.uav[87] utilizationEnergyMaintenance 123028.16924686
scalar OsgEarthNet.uav[87] utilizationEnergyCharge 258445.73657227
scalar OsgEarthNet.uav[87] utilizationEnergyOverdrawMission 0
scalar OsgEarthNet.uav[87] utilizationEnergyOverdrawMaintenance 0
scalar OsgEarthNet.uav[87] utilizationCountMissions 59
scalar OsgEarthNet.uav[87] utilizationCountManeuversMission 907
scalar OsgEarthNet.uav[87] utilizationCountManeuversMaintenance 119
scalar OsgEarthNet.uav[87] utilizationCountChargeState 59
scalar OsgEarthNet.uav[87] utilizationCountOverdrawnAfterMission 0
scalar OsgEarthNet.uav[87] utilizationCountIdleState 26
scalar OsgEarthNet.uav[87] utilizationFail 0
scalar OsgEarthNet.uav[87] simulationTime 259200
scalar OsgEarthNet.uav[88] utilizationSecMission 28556.690311146
scalar OsgEarthNet.uav[88] utilizationSecMaintenance 27263.724555929
scalar OsgEarthNet.uav[88] utilizationSecCharge 195637.58413293
scalar OsgEarthNet.uav[88] utilizationSecIdle 7742
scalar OsgEarthNet.uav[88] utilizationEnergyMission 137873.80691359
scalar OsgEarthNet.uav[88] utilizationEnergyMaintenance 126477.05570602
scalar OsgEarthNet.uav[88] utilizationEnergyCharge 264742.59765625
scalar OsgEarthNet.uav[88] utilizationEnergyOverdrawMission 0
scalar OsgEarthNet.uav[88] utilizationEnergyOverdrawMaintenance 0
scalar OsgEarthNet.uav[88] utilizationCountMissions 59
scalar OsgEarthNet.uav[88] utilizationCountManeuversMission 892
scalar OsgEarthNet.uav[88] utilizationCountManeuversMaintenance 117
scalar OsgEarthNet.uav[88] utilizationCountChargeState 59
scalar OsgEarthNet.uav[88] utilizationCountOverdrawnAfterMission 0
scalar OsgEarthNet.uav[88] utilizationCountIdleState 31
scalar OsgEarthNet.uav[88] utilizationFail 0
scalar OsgEarthNet.uav[88] simulationTime 259200
scalar OsgEarthNet.uav[89] utilizationSecMission 29085.447347631
scalar OsgEarthNet.uav[89] utilizationSecMaintenance 25056.214199135
scalar OsgEarthNet.uav[89] utilizationSecCharge 194177.38719757
scalar OsgEarthNet.uav[89] utilizationSecIdle 10880.950255665
scalar OsgEarthNet.uav[89] utilizationEnergyMission 142205.41083145
scalar OsgEarthNet.uav[89] utilizationEnergyMaintenance 116265.22713852
scalar OsgEarthNet.uav[89] utilizationEnergyCharge 257310.51171875
scalar OsgEarthNet.uav[89] utilizationEnergyOverdrawMission 0
scalar OsgEarthNet.uav[89] utilizationEnergyOverdrawMaintenance 0
scalar OsgEarthNet.uav[89] utilizationCountMissions 59
scalar OsgEarthNet.uav[89] utilizationCountManeuversMission 1023
scalar OsgEarthNet.uav[89] utilizationCountManeuversMaintenance 118
scalar OsgEarthNet.uav[89] utilizationCountChargeState 59
scalar OsgEarthNet.uav[89] utilizationCountOverdrawnAfterMission 0
scalar OsgEarthNet.uav[89] utilizationCountIdleState 29
scalar OsgEarthNet.uav[89] utilizationFail 0
scalar OsgEarthNet.uav[89] simulationTime 259200
scalar OsgEarthNet.uav[90] utilizationSecMission 29243.247759562
scalar OsgEarthNet.uav[90] utilizationSecMaintenance 26274.749240438
scalar OsgEarthNet.uav[90] utilizationSecCharge 194970
scalar OsgEarthNet.uav[90] utilizationSecIdle 8712.002
scalar OsgEarthNet.uav[90] utilizationEnergyMission 142895.59374181
scalar OsgEarthNet.uav[90] utilizationEnergyMaintenance 119611.06072998
scalar OsgEarthNet.uav[90] utilizationEnergyCharge 260874.61181641
scalar OsgEarthNet.uav[90] utilizationEnergyOverdrawMission 0
scalar OsgEarthNet.uav[90] utilizationEnergyOverdrawMaintenance 0
scalar OsgEarthNet.uav[90] utilizationCountMissions 58
scalar OsgEarthNet.uav[90] utilizationCountManeuversMission 1008
scalar OsgEarthNet.uav[90] utilizationCountManeuversMaintenance 117
scalar OsgEarthNet.uav[90] utilizationCountChargeState 58
scalar OsgEarthNet.uav[90] utilizationCountOverdrawnAfterMission 0
scalar OsgEarthNet.uav[90] utilizationCountIdleState 29
scalar OsgEarthNet.uav[90] utilizationFail 0
scalar OsgEarthNet.uav[90] simulationTime 259200
scalar OsgEarthNet.uav[91] utilizationSecMission 28311.4218402
scalar OsgEarthNet.uav[91] utilizationSecMaintenance 26954.806641831
scalar OsgEarthNet.uav[91] utilizationSecCharge 194640
scalar OsgEarthNet.uav[91] utilizationSecIdle 9293.7705179694
scalar OsgEarthNet.uav[91] utilizationEnergyMission 136358.61180115
scalar OsgEarthNet.uav[91] utilizationEnergyMaintenance 125687.28216553
scalar OsgEarthNet.uav[91] utilizationEnergyCharge 261470.99780273
scalar OsgEarthNet.uav[91] utilizationEnergyOverdrawMission 0
scalar OsgEarthNet.uav[91] utilizationEnergyOverdrawMaintenance 0
scalar OsgEarthNet.uav[91] utilizationCountMissions 59
scalar OsgEarthNet.uav[91] utilizationCountManeuversMission 822
scalar OsgEarthNet.uav[91] utilizationCountManeuversMaintenance 118
scalar OsgEarthNet.uav[91] utilizationCountChargeState 59
scalar OsgEarthNet.uav[91] utilizationCountOverdrawnAfterMission 0
scalar OsgEarthNet.uav[91] utilizationCountIdleState 29
scalar OsgEarthNet.uav[91] utilizationFail 0
scalar OsgEarthNet.uav[91] simulationTime 259200
scalar OsgEarthNet.uav[92] utilizationSecMission 30107.613961588
scalar OsgEarthNet.uav[92] utilizationSecMaintenance 26056.791875833
scalar OsgEarthNet.uav[92] utilizationSecCharge 194596.13481449
scalar OsgEarthNet.uav[92] utilizationSecIdle 8439.4583480894
scalar OsgEarthNet.uav[92] utilizationEnergyMission 146231.88013077
scalar OsgEarthNet.uav[92] utilizationEnergyMaintenance 120774.00580978
scalar OsgEarthNet.uav[92] utilizationEnergyCharge 261624.32696533
scalar OsgEarthNet.uav[92] utilizationEnergyOverdrawMission 0
scalar OsgEarthNet.uav[92] utilizationEnergyOverdrawMaintenance 0
scalar OsgEarthNet.uav[92] utilizationCountMissions 60
scalar OsgEarthNet.uav[92] utilizationCountManeuversMission 907
scalar OsgEarthNet.uav[92] utilizationCountManeuversMaintenance 120
scalar OsgEarthNet.uav[92] utilizationCountChargeState 60
scalar OsgEarthNet.uav[92] utilizationCountOverdrawnAfterMission 0
scalar OsgEarthNet.uav[92] utilizationCountIdleState 30
scalar OsgEarthNet.uav[92] utilizationFail 0
scalar OsgEarthNet.uav[92] simulationTime 259200
scalar OsgEarthNet.uav[93] utilizationSecMission 28904.245208344
scalar OsgEarthNet.uav[93] utilizationSecMaintenance 26524.800535991
scalar OsgEarthNet.uav[93] utilizationSecCharge 194070
scalar OsgEarthNet.uav[93] utilizationSecIdle 9700.9532556647
scalar OsgEarthNet.uav[93] utilizationEnergyMission 140219.77241135
scalar OsgEarthNet.uav[93] utilizationEnergyMaintenance 123733.43822205
scalar OsgEarthNet.uav[93] utilizationEnergyCharge 259838.84936523
scalar OsgEarthNet.uav[93] utilizationEnergyOverdrawMission 0
scalar OsgEarthNet.uav[93] utilizationEnergyOverdrawMaintenance 0
scalar OsgEarthNet.uav[93] utilizationCountMissions 59
scalar OsgEarthNet.uav[93] utilizationCountManeuversMission 904
scalar OsgEarthNet.uav[93] utilizationCountManeuversMaintenance 118
scalar OsgEarthNet.uav[93] utilizationCountChargeState 58
scalar OsgEarthNet.uav[93] utilizationCountOverdrawnAfterMission 0
scalar OsgEarthNet.uav[93] utilizationCountIdleState 27
scalar OsgEarthNet.uav[93] utilizationFail 0
scalar OsgEarthNet.uav[93] simulationTime 259200
scalar OsgEarthNet.uav[94] utilizationSecMission 28206.038403313
scalar OsgEarthNet.uav[94] utilizationSecMaintenance 27985.49682429
scalar OsgEarthNet.uav[94] utilizationSecCharge 195306.4577724
scalar OsgEarthNet.uav[94] utilizationSecIdle 7702.006
scalar OsgEarthNet.uav[94] utilizationEnergyMission 136756.53804398
scalar OsgEarthNet.uav[94] utilizationEnergyMaintenance 129213.6075592
scalar OsgEarthNet.uav[94] utilizationEnergyCharge 265284.60144043
scalar OsgEarthNet.uav[94] utilizationEnergyOverdrawMission 0
scalar OsgEarthNet.uav[94] utilizationEnergyOverdrawMaintenance 0
scalar OsgEarthNet.uav[94] utilizationCountMissions 60
scalar OsgEarthNet.uav[94] utilizationCountManeuversMission 890
scalar OsgEarthNet.uav[94] utilizationCountManeuversMaintenance 120
scalar OsgEarthNet.uav[94] utilizationCountChargeState 60
scalar OsgEarthNet.uav[94] utilizationCountOverdrawnAfterMission 0
scalar OsgEarthNet.uav[94] utilizationCountIdleState 26
scalar OsgEarthNet.uav[94] utilizationFail 0
scalar OsgEarthNet.uav[94] simulationTime 259200
scalar OsgEarthNet.uav[95] utilizationSecMission 28007.451848797
scalar OsgEarthNet.uav[95] utilizationSecMaintenance 28701.471814298
scalar OsgEarthNet.uav[95] utilizationSecCharge 196381.85572299
scalar OsgEarthNet.uav[95] utilizationSecIdle 6109.2196139157
scalar OsgEarthNet.uav[95] utilizationEnergyMission 134307.11428833
scalar OsgEarthNet.uav[95] utilizationEnergyMaintenance 133152.85160446
scalar OsgEarthNet.uav[95] utilizationEnergyCharge 267696.79711914
scalar OsgEarthNet.uav[95] utilizationEnergyOverdrawMission 0
scalar OsgEarthNet.uav[95] utilizationEnergyOverdrawMaintenance 0
scalar OsgEarthNet.uav[95] utilizationCountMissions 60
scalar OsgEarthNet.uav[95] utilizationCountManeuversMission 743
scalar OsgEarthNet.uav[95] utilizationCountManeuversMaintenance 120
scalar OsgEarthNet.uav[95] utilizationCountChargeState 60
scalar OsgEarthNet.uav[95] utilizationCountOverdrawnAfterMission 0
scalar OsgEarthNet.uav[95] utilizationCountIdleState 18
scalar OsgEarthNet.uav[95] utilizationFail 0
scalar OsgEarthNet.uav[95] simulationTime 259200
scalar OsgEarthNet.uav[96] utilizationSecMission 27216.375896134
scalar OsgEarthNet.uav[96] utilizationSecMaintenance 27961.10157932
scalar OsgEarthNet.uav[96] utilizationSecCharge 193970
scalar OsgEarthNet.uav[96] utilizationSecIdle 10052.521524546
scalar OsgEarthNet.uav[96] utilizationEnergyMission 132907.60579888
scalar OsgEarthNet.uav[96] utilizationEnergyMaintenance 131045.29266357
scalar OsgEarthNet.uav[96] utilizationEnergyCharge 262045.15136719
scalar OsgEarthNet.uav[96] utilizationEnergyOverdrawMission 0
scalar OsgEarthNet.uav[96] utilizationEnergyOverdrawMaintenance 268.64126586914
scalar OsgEarthNet.uav[96] utilizationCountMissions 59
scalar OsgEarthNet.uav[96] utilizationCountManeuversMission 867
scalar OsgEarthNet.uav[96] utilizationCountManeuversMaintenance 119
scalar OsgEarthNet.uav[96] utilizationCountChargeState 59
scalar OsgEarthNet.uav[96] utilizationCountOverdrawnAfterMission 1
scalar OsgEarthNet.uav[96] utilizationCountIdleState 22
scalar OsgEarthNet.uav[96] utilizationFail 0
scalar OsgEarthNet.uav[96] simulationTime 259200
scalar OsgEarthNet.uav[97] utilizationSecMission 28347.085031121
scalar OsgEarthNet.uav[97] utilizationSecMaintenance 27781.435607469
scalar OsgEarthNet.uav[97] utilizationSecCharge 195829.47136141
scalar OsgEarthNet.uav[97] utilizationSecIdle 7242.007
scalar OsgEarthNet.uav[97] utilizationEnergyMission 137694.66405106
scalar OsgEarthNet.uav[97] utilizationEnergyMaintenance 128967.91794205
scalar OsgEarthNet.uav[97] utilizationEnergyCharge 266544.31420898
scalar OsgEarthNet.uav[97] utilizationEnergyOverdrawMission 0
scalar OsgEarthNet.uav[97] utilizationEnergyOverdrawMaintenance 0
scalar OsgEarthNet.uav[97] utilizationCountMissions 60
scalar OsgEarthNet.uav[97] utilizationCountManeuversMission 891
scalar OsgEarthNet.uav[97] utilizationCountManeuversMaintenance 120
scalar OsgEarthNet.uav[97] utilizationCountChargeState 60
scalar OsgEarthNet.uav[97] utilizationCountOverdrawnAfterMission 0
scalar OsgEarthNet.uav[97] utilizationCountIdleState 21
scalar OsgEarthNet.uav[97] utilizationFail 0
scalar OsgEarthNet.uav[97] simulationTime 259200
scalar OsgEarthNet.uav[98] utilizationSecMission 28341.319492288
scalar OsgEarthNet.uav[98] utilizationSecMaintenance 28717.308710326
scalar OsgEarthNet.uav[98] utilizationSecCharge 197729.37079739
scalar OsgEarthNet.uav[98] utilizationSecIdle 4412
scalar OsgEarthNet.uav[98] utilizationEnergyMission 138565.23683929
scalar OsgEarthNet.uav[98] utilizationEnergyMaintenance 133868.29207993
scalar OsgEarthNet.uav[98] utilizationEnergyCharge 268196.82299805
scalar OsgEarthNet.uav[98] utilizationEnergyOverdrawMission 0
scalar OsgEarthNet.uav[98] utilizationEnergyOverdrawMaintenance 0
scalar OsgEarthNet.uav[98] utilizationCountMissions 61
scalar OsgEarthNet.uav[98] utilizationCountManeuversMission 912
scalar OsgEarthNet.uav[98] utilizationCountManeuversMaintenance 122
scalar OsgEarthNet.uav[98] utilizationCountChargeState 61
scalar OsgEarthNet.uav[98] utilizationCountOverdrawnAfterMission 0
scalar OsgEarthNet.uav[98] utilizationCountIdleState 22
scalar OsgEarthNet.uav[98] utilizationFail 0
scalar OsgEarthNet.uav[98] simulationTime 259200
scalar OsgEarthNet.uav[99] utilizationSecMission 28694.01276716
scalar OsgEarthNet.uav[99] utilizationSecMaintenance 27845.836772176
scalar OsgEarthNet.uav[99] utilizationSecCharge 195958.14146066
scalar OsgEarthNet.uav[99] utilizationSecIdle 6702.008
scalar OsgEarthNet.uav[99] utilizationEnergyMission 138212.13750076
scalar OsgEarthNet.uav[99] utilizationEnergyMaintenance 129925.55089188
scalar OsgEarthNet.uav[99] utilizationEnergyCharge 266207.1171875
scalar OsgEarthNet.uav[99] utilizationEnergyOverdrawMission 0
scalar OsgEarthNet.uav[99] utilizationEnergyOverdrawMaintenance 0
scalar OsgEarthNet.uav[99] utilizationCountMissions 60
scalar OsgEarthNet.uav[99] utilizationCountManeuversMission 869
scalar OsgEarthNet.uav[99] utilizationCountManeuversMaintenance 120
scalar OsgEarthNet.uav[99] utilizationCountChargeState 60
scalar OsgEarthNet.uav[99] utilizationCountOverdrawnAfterMission 0
scalar OsgEarthNet.uav[99] utilizationCountIdleState 17
scalar OsgEarthNet.uav[99] utilizationFail 0
scalar OsgEarthNet.uav[99] simulationTime 259200
scalar OsgEarthNet.cs[0] usedPower 5299416.2015164
scalar OsgEarthNet.cs[0] chargedPower 5299416.2015164
scalar OsgEarthNet.cs[0] chargedMobileNodes 908
scalar OsgEarthNet.cs[0] reservations 1211
scalar OsgEarthNet.cs[1] usedPower 5519041.1134099
scalar OsgEarthNet.cs[1] chargedPower 5519041.1134099
scalar OsgEarthNet.cs[1] chargedMobileNodes 915
scalar OsgEarthNet.cs[1] reservations 1223
scalar OsgEarthNet.cs[2] usedPower 9729473.5017514
scalar OsgEarthNet.cs[2] chargedPower 9729473.5017514
scalar OsgEarthNet.cs[2] chargedMobileNodes 1783
scalar OsgEarthNet.cs[2] reservations 2207

