version 2
run Szenario_Hotel_Gabelbach-21-20180707-21:53:09-22908
attr configname Szenario_Hotel_Gabelbach
attr datetime 20180707-21:53:09
attr experiment Szenario_Hotel_Gabelbach
attr inifile omnetpp.ini
attr iterationvars "$quant=0.50, $replM=0"
attr iterationvarsf quant=0.50,replM=0-
attr measurement "$quant=0.50, $replM=0"
attr network OsgEarthNet
attr processid 22908
attr repetition 21
attr replication #21
attr resultdir results
attr runnumber 21
attr seedset 21
itervar quant 0.50
itervar replM 0
param *.osgEarthScene.scene "\"Szenario_Hotel_Gabelbach.earth\""
param *.playgroundLatitude 50.6830269
param *.playgroundLongitude 10.8538055
param *.playgroundWidth 3500m
param *.playgroundHeight 3500m
param *.numCSs 3
param *.numUAVs 100
param *.cs[0].posX 3537m
param *.cs[0].posY 965m
param *.cs[0].posZ 538m
param *.cs[1].posX 312m
param *.cs[1].posY 1262m
param *.cs[1].posZ 539m
param *.cs[2].posX 2185m
param *.cs[2].posY 3026m
param *.cs[2].posZ 777m
param *.uav[*].predictionQuantile 0.50
param *.uav[*].replacementMethod 0
param *.*.timeStep 10s
param *.uav[*].commandPreviewCommandCount 20
param *.missionControl.missionFiles "\"missions\\\\Szenario_WB_Hotel_Gabelbach_Mission_Hotel.waypoints,missions\\\\Szenario_WB_Hotel_Gabelbach_Mission_Kickelhahn.waypoints,missions\\\\Szenario_WB_Hotel_Gabelbach_Mission_Ilmenau_Sportplatz.waypoints,missions\\\\Szenario_WB_Hotel_Gabelbach_Mission_Manebach_Mitte.waypoints,missions\\\\Szenario_WB_Hotel_Gabelbach_Mission_Manebach_Sued.waypoints,missions\\\\Szenario_WB_Hotel_Gabelbach_Hover_HoheSchlaufe.waypoints,missions\\\\Szenario_WB_Hotel_Gabelbach_Hover_Kickelhahn.waypoints,missions\\\\Szenario_WB_Hotel_Gabelbach_Hover_Gabelbachskopf.waypoints,missions\\\\Szenario_WB_Hotel_Gabelbach_Hover_Dachskopf.waypoints\""
param *.uav[0].startX 3537m
param *.uav[0].startY 965m
param *.uav[0].startZ 539m
param *.uav[1].startX 312m
param *.uav[1].startY 1262m
param *.uav[1].startZ 540m
param *.uav[2].startX 2185m
param *.uav[2].startY 3026m
param *.uav[2].startZ 778m
param *.uav[3].startX 3537m
param *.uav[3].startY 965m
param *.uav[3].startZ 539m
param *.uav[4].startX 312m
param *.uav[4].startY 1262m
param *.uav[4].startZ 540m
param *.uav[5].startX 2185m
param *.uav[5].startY 3026m
param *.uav[5].startZ 778m
param *.uav[6].startX 3537m
param *.uav[6].startY 965m
param *.uav[6].startZ 539m
param *.uav[7].startX 312m
param *.uav[7].startY 1262m
param *.uav[7].startZ 540m
param *.uav[8].startX 2185m
param *.uav[8].startY 3026m
param *.uav[8].startZ 778m
param *.uav[9].startX 3537m
param *.uav[9].startY 965m
param *.uav[9].startZ 539m
param *.uav[10].startX 3537m
param *.uav[10].startY 965m
param *.uav[10].startZ 539m
param *.uav[11].startX 312m
param *.uav[11].startY 1262m
param *.uav[11].startZ 540m
param *.uav[12].startX 2185m
param *.uav[12].startY 3026m
param *.uav[12].startZ 778m
param *.uav[13].startX 3537m
param *.uav[13].startY 965m
param *.uav[13].startZ 539m
param *.uav[14].startX 312m
param *.uav[14].startY 1262m
param *.uav[14].startZ 540m
param *.uav[15].startX 2185m
param *.uav[15].startY 3026m
param *.uav[15].startZ 778m
param *.uav[16].startX 3537m
param *.uav[16].startY 965m
param *.uav[16].startZ 539m
param *.uav[17].startX 312m
param *.uav[17].startY 1262m
param *.uav[17].startZ 540m
param *.uav[18].startX 2185m
param *.uav[18].startY 3026m
param *.uav[18].startZ 778m
param *.uav[19].startX 3537m
param *.uav[19].startY 965m
param *.uav[19].startZ 539m
param *.uav[20].startX 3537m
param *.uav[20].startY 965m
param *.uav[20].startZ 539m
param *.uav[21].startX 312m
param *.uav[21].startY 1262m
param *.uav[21].startZ 540m
param *.uav[22].startX 2185m
param *.uav[22].startY 3026m
param *.uav[22].startZ 778m
param *.uav[23].startX 3537m
param *.uav[23].startY 965m
param *.uav[23].startZ 539m
param *.uav[24].startX 312m
param *.uav[24].startY 1262m
param *.uav[24].startZ 540m
param *.uav[25].startX 2185m
param *.uav[25].startY 3026m
param *.uav[25].startZ 778m
param *.uav[26].startX 3537m
param *.uav[26].startY 965m
param *.uav[26].startZ 539m
param *.uav[27].startX 312m
param *.uav[27].startY 1262m
param *.uav[27].startZ 540m
param *.uav[28].startX 2185m
param *.uav[28].startY 3026m
param *.uav[28].startZ 778m
param *.uav[29].startX 3537m
param *.uav[29].startY 965m
param *.uav[29].startZ 539m
param *.uav[30].startX 3537m
param *.uav[30].startY 965m
param *.uav[30].startZ 539m
param *.uav[31].startX 312m
param *.uav[31].startY 1262m
param *.uav[31].startZ 540m
param *.uav[32].startX 2185m
param *.uav[32].startY 3026m
param *.uav[32].startZ 778m
param *.uav[33].startX 3537m
param *.uav[33].startY 965m
param *.uav[33].startZ 539m
param *.uav[34].startX 312m
param *.uav[34].startY 1262m
param *.uav[34].startZ 540m
param *.uav[35].startX 2185m
param *.uav[35].startY 3026m
param *.uav[35].startZ 778m
param *.uav[36].startX 3537m
param *.uav[36].startY 965m
param *.uav[36].startZ 539m
param *.uav[37].startX 312m
param *.uav[37].startY 1262m
param *.uav[37].startZ 540m
param *.uav[38].startX 2185m
param *.uav[38].startY 3026m
param *.uav[38].startZ 778m
param *.uav[39].startX 3537m
param *.uav[39].startY 965m
param *.uav[39].startZ 539m
param *.uav[40].startX 3537m
param *.uav[40].startY 965m
param *.uav[40].startZ 539m
param *.uav[41].startX 312m
param *.uav[41].startY 1262m
param *.uav[41].startZ 540m
param *.uav[42].startX 2185m
param *.uav[42].startY 3026m
param *.uav[42].startZ 778m
param *.uav[43].startX 3537m
param *.uav[43].startY 965m
param *.uav[43].startZ 539m
param *.uav[44].startX 312m
param *.uav[44].startY 1262m
param *.uav[44].startZ 540m
param *.uav[45].startX 2185m
param *.uav[45].startY 3026m
param *.uav[45].startZ 778m
param *.uav[46].startX 3537m
param *.uav[46].startY 965m
param *.uav[46].startZ 539m
param *.uav[47].startX 312m
param *.uav[47].startY 1262m
param *.uav[47].startZ 540m
param *.uav[48].startX 2185m
param *.uav[48].startY 3026m
param *.uav[48].startZ 778m
param *.uav[49].startX 3537m
param *.uav[49].startY 965m
param *.uav[49].startZ 539m
param *.uav[50].startX 3537m
param *.uav[50].startY 965m
param *.uav[50].startZ 539m
param *.uav[51].startX 312m
param *.uav[51].startY 1262m
param *.uav[51].startZ 540m
param *.uav[52].startX 2185m
param *.uav[52].startY 3026m
param *.uav[52].startZ 778m
param *.uav[53].startX 3537m
param *.uav[53].startY 965m
param *.uav[53].startZ 539m
param *.uav[54].startX 312m
param *.uav[54].startY 1262m
param *.uav[54].startZ 540m
param *.uav[55].startX 2185m
param *.uav[55].startY 3026m
param *.uav[55].startZ 778m
param *.uav[56].startX 3537m
param *.uav[56].startY 965m
param *.uav[56].startZ 539m
param *.uav[57].startX 312m
param *.uav[57].startY 1262m
param *.uav[57].startZ 540m
param *.uav[58].startX 2185m
param *.uav[58].startY 3026m
param *.uav[58].startZ 778m
param *.uav[59].startX 3537m
param *.uav[59].startY 965m
param *.uav[59].startZ 539m
param *.uav[60].startX 3537m
param *.uav[60].startY 965m
param *.uav[60].startZ 539m
param *.uav[61].startX 312m
param *.uav[61].startY 1262m
param *.uav[61].startZ 540m
param *.uav[62].startX 2185m
param *.uav[62].startY 3026m
param *.uav[62].startZ 778m
param *.uav[63].startX 3537m
param *.uav[63].startY 965m
param *.uav[63].startZ 539m
param *.uav[64].startX 312m
param *.uav[64].startY 1262m
param *.uav[64].startZ 540m
param *.uav[65].startX 2185m
param *.uav[65].startY 3026m
param *.uav[65].startZ 778m
param *.uav[66].startX 3537m
param *.uav[66].startY 965m
param *.uav[66].startZ 539m
param *.uav[67].startX 312m
param *.uav[67].startY 1262m
param *.uav[67].startZ 540m
param *.uav[68].startX 2185m
param *.uav[68].startY 3026m
param *.uav[68].startZ 778m
param *.uav[69].startX 3537m
param *.uav[69].startY 965m
param *.uav[69].startZ 539m
param *.uav[70].startX 3537m
param *.uav[70].startY 965m
param *.uav[70].startZ 539m
param *.uav[71].startX 312m
param *.uav[71].startY 1262m
param *.uav[71].startZ 540m
param *.uav[72].startX 2185m
param *.uav[72].startY 3026m
param *.uav[72].startZ 778m
param *.uav[73].startX 3537m
param *.uav[73].startY 965m
param *.uav[73].startZ 539m
param *.uav[74].startX 312m
param *.uav[74].startY 1262m
param *.uav[74].startZ 540m
param *.uav[75].startX 2185m
param *.uav[75].startY 3026m
param *.uav[75].startZ 778m
param *.uav[76].startX 3537m
param *.uav[76].startY 965m
param *.uav[76].startZ 539m
param *.uav[77].startX 312m
param *.uav[77].startY 1262m
param *.uav[77].startZ 540m
param *.uav[78].startX 2185m
param *.uav[78].startY 3026m
param *.uav[78].startZ 778m
param *.uav[79].startX 3537m
param *.uav[79].startY 965m
param *.uav[79].startZ 539m
param *.uav[80].startX 3537m
param *.uav[80].startY 965m
param *.uav[80].startZ 539m
param *.uav[81].startX 312m
param *.uav[81].startY 1262m
param *.uav[81].startZ 540m
param *.uav[82].startX 2185m
param *.uav[82].startY 3026m
param *.uav[82].startZ 778m
param *.uav[83].startX 3537m
param *.uav[83].startY 965m
param *.uav[83].startZ 539m
param *.uav[84].startX 312m
param *.uav[84].startY 1262m
param *.uav[84].startZ 540m
param *.uav[85].startX 2185m
param *.uav[85].startY 3026m
param *.uav[85].startZ 778m
param *.uav[86].startX 3537m
param *.uav[86].startY 965m
param *.uav[86].startZ 539m
param *.uav[87].startX 312m
param *.uav[87].startY 1262m
param *.uav[87].startZ 540m
param *.uav[88].startX 2185m
param *.uav[88].startY 3026m
param *.uav[88].startZ 778m
param *.uav[89].startX 3537m
param *.uav[89].startY 965m
param *.uav[89].startZ 539m
param *.uav[90].startX 3537m
param *.uav[90].startY 965m
param *.uav[90].startZ 539m
param *.uav[91].startX 312m
param *.uav[91].startY 1262m
param *.uav[91].startZ 540m
param *.uav[92].startX 2185m
param *.uav[92].startY 3026m
param *.uav[92].startZ 778m
param *.uav[93].startX 3537m
param *.uav[93].startY 965m
param *.uav[93].startZ 539m
param *.uav[94].startX 312m
param *.uav[94].startY 1262m
param *.uav[94].startZ 540m
param *.uav[95].startX 2185m
param *.uav[95].startY 3026m
param *.uav[95].startZ 778m
param *.uav[96].startX 3537m
param *.uav[96].startY 965m
param *.uav[96].startZ 539m
param *.uav[97].startX 312m
param *.uav[97].startY 1262m
param *.uav[97].startZ 540m
param *.uav[98].startX 2185m
param *.uav[98].startY 3026m
param *.uav[98].startZ 778m
param *.uav[99].startX 3537m
param *.uav[99].startY 965m
param *.uav[99].startZ 539m
param *.osgEarthScene.scene "\"boston.earth\""
param *.playgroundLatitude 42.3558
param *.playgroundLongitude -71.0677
param *.playgroundWidth 400m
param *.playgroundHeight 200m
param *.channelController.connectionColor "\"#0000FF40\""
param *.channelController.showConnections false
param *.uav[*].modelURL "\"quadrocopter.small.obj.15.scale.0,0,90.rot\""
param *.uav[*].labelColor "\"#FF7C00CC\""
param *.uav[*].label2Color "\"#FF7C00EE\""
param *.uav[*].batteryCapacity 5200mAh
param *.uav[*].batteryRemaining uav[index].batteryCapacity
param *.uav[*].predictionQuantile 0.95
param *.uav[*].replacementMethod 2
param *.uav[*].weightedSumWeight 0.5
param *.cs[*].modelURL "\"chargingstation_v1.osgt.1.scale.0,0,0.rot.0,0,-15e-1.trans\""
param *.cs[*].spotsWaiting 999
param *.cs[*].spotsCharging 999
param *.cs[*].chargeEffectivenessPercentage 100
param *.cs[*].nonLinearPhaseStartPercentage 85
param *.cs[*].chargeCurrent 6.0A
param *.cs[*].prioritizeFastCharge true
param *.missionControl.replacementSearchMethod 0
param *.*.timeStep 9s

scalar OsgEarthNet.uav[0] utilizationSecMission 684.4732299383
scalar OsgEarthNet.uav[0] utilizationSecMaintenance 355.19661968797
scalar OsgEarthNet.uav[0] utilizationSecCharge 3620
scalar OsgEarthNet.uav[0] utilizationSecIdle 8006.6282799732
scalar OsgEarthNet.uav[0] utilizationEnergyMission 3013.059173584
scalar OsgEarthNet.uav[0] utilizationEnergyMaintenance 1659.9385604858
scalar OsgEarthNet.uav[0] utilizationEnergyCharge 4672.9995117188
scalar OsgEarthNet.uav[0] utilizationEnergyOverdrawMission 0
scalar OsgEarthNet.uav[0] utilizationEnergyOverdrawMaintenance 0
scalar OsgEarthNet.uav[0] utilizationCountMissions 1
scalar OsgEarthNet.uav[0] utilizationCountManeuversMission 11
scalar OsgEarthNet.uav[0] utilizationCountManeuversMaintenance 2
scalar OsgEarthNet.uav[0] utilizationCountChargeState 1
scalar OsgEarthNet.uav[0] utilizationCountOverdrawnAfterMission 0
scalar OsgEarthNet.uav[0] utilizationCountIdleState 2
scalar OsgEarthNet.uav[0] utilizationFail 0
scalar OsgEarthNet.uav[0] simulationTime 12666.299129599
scalar OsgEarthNet.uav[1] utilizationSecMission 905.09654255331
scalar OsgEarthNet.uav[1] utilizationSecMaintenance 814.77832582273
scalar OsgEarthNet.uav[1] utilizationSecCharge 3930
scalar OsgEarthNet.uav[1] utilizationSecIdle 7016.4232612234
scalar OsgEarthNet.uav[1] utilizationEnergyMission 4519.3021302041
scalar OsgEarthNet.uav[1] utilizationEnergyMaintenance 3905.7868156433
scalar OsgEarthNet.uav[1] utilizationEnergyCharge 5126.7856445312
scalar OsgEarthNet.uav[1] utilizationEnergyOverdrawMission 0
scalar OsgEarthNet.uav[1] utilizationEnergyOverdrawMaintenance 0
scalar OsgEarthNet.uav[1] utilizationCountMissions 1
scalar OsgEarthNet.uav[1] utilizationCountManeuversMission 36
scalar OsgEarthNet.uav[1] utilizationCountManeuversMaintenance 3
scalar OsgEarthNet.uav[1] utilizationCountChargeState 1
scalar OsgEarthNet.uav[1] utilizationCountOverdrawnAfterMission 0
scalar OsgEarthNet.uav[1] utilizationCountIdleState 2
scalar OsgEarthNet.uav[1] utilizationFail 0
scalar OsgEarthNet.uav[1] simulationTime 12666.299129599
scalar OsgEarthNet.uav[2] utilizationSecMission 750.20472747826
scalar OsgEarthNet.uav[2] utilizationSecMaintenance 255.5651663541
scalar OsgEarthNet.uav[2] utilizationSecCharge 3570
scalar OsgEarthNet.uav[2] utilizationSecIdle 8090.5282357671
scalar OsgEarthNet.uav[2] utilizationEnergyMission 3312.4202423096
scalar OsgEarthNet.uav[2] utilizationEnergyMaintenance 1178.108959198
scalar OsgEarthNet.uav[2] utilizationEnergyCharge 4582.0375976562
scalar OsgEarthNet.uav[2] utilizationEnergyOverdrawMission 0
scalar OsgEarthNet.uav[2] utilizationEnergyOverdrawMaintenance 0
scalar OsgEarthNet.uav[2] utilizationCountMissions 1
scalar OsgEarthNet.uav[2] utilizationCountManeuversMission 11
scalar OsgEarthNet.uav[2] utilizationCountManeuversMaintenance 2
scalar OsgEarthNet.uav[2] utilizationCountChargeState 1
scalar OsgEarthNet.uav[2] utilizationCountOverdrawnAfterMission 0
scalar OsgEarthNet.uav[2] utilizationCountIdleState 2
scalar OsgEarthNet.uav[2] utilizationFail 0
scalar OsgEarthNet.uav[2] simulationTime 12666.299129599
scalar OsgEarthNet.uav[3] utilizationSecMission 750.20472747825
scalar OsgEarthNet.uav[3] utilizationSecMaintenance 373.25723311718
scalar OsgEarthNet.uav[3] utilizationSecCharge 3850
scalar OsgEarthNet.uav[3] utilizationSecIdle 7692.836169004
scalar OsgEarthNet.uav[3] utilizationEnergyMission 3568.2132110596
scalar OsgEarthNet.uav[3] utilizationEnergyMaintenance 1637.0265731812
scalar OsgEarthNet.uav[3] utilizationEnergyCharge 5082.7021484375
scalar OsgEarthNet.uav[3] utilizationEnergyOverdrawMission 0
scalar OsgEarthNet.uav[3] utilizationEnergyOverdrawMaintenance 0
scalar OsgEarthNet.uav[3] utilizationCountMissions 1
scalar OsgEarthNet.uav[3] utilizationCountManeuversMission 11
scalar OsgEarthNet.uav[3] utilizationCountManeuversMaintenance 2
scalar OsgEarthNet.uav[3] utilizationCountChargeState 1
scalar OsgEarthNet.uav[3] utilizationCountOverdrawnAfterMission 0
scalar OsgEarthNet.uav[3] utilizationCountIdleState 2
scalar OsgEarthNet.uav[3] utilizationFail 0
scalar OsgEarthNet.uav[3] simulationTime 12666.299129599
scalar OsgEarthNet.uav[4] utilizationSecMission 680
scalar OsgEarthNet.uav[4] utilizationSecMaintenance 415.21104267299
scalar OsgEarthNet.uav[4] utilizationSecCharge 3950
scalar OsgEarthNet.uav[4] utilizationSecIdle 7621.0870869264
scalar OsgEarthNet.uav[4] utilizationEnergyMission 3708.8833961487
scalar OsgEarthNet.uav[4] utilizationEnergyMaintenance 1968.9443092346
scalar OsgEarthNet.uav[4] utilizationEnergyCharge 5200
scalar OsgEarthNet.uav[4] utilizationEnergyOverdrawMission 0
scalar OsgEarthNet.uav[4] utilizationEnergyOverdrawMaintenance 138.84643554688
scalar OsgEarthNet.uav[4] utilizationCountMissions 1
scalar OsgEarthNet.uav[4] utilizationCountManeuversMission 34
scalar OsgEarthNet.uav[4] utilizationCountManeuversMaintenance 2
scalar OsgEarthNet.uav[4] utilizationCountChargeState 1
scalar OsgEarthNet.uav[4] utilizationCountOverdrawnAfterMission 1
scalar OsgEarthNet.uav[4] utilizationCountIdleState 2
scalar OsgEarthNet.uav[4] utilizationFail 0
scalar OsgEarthNet.uav[4] simulationTime 12666.299129599
scalar OsgEarthNet.uav[5] utilizationSecMission 1298.4758854691
scalar OsgEarthNet.uav[5] utilizationSecMaintenance 873.52426426952
scalar OsgEarthNet.uav[5] utilizationSecCharge 5855.1228694501
scalar OsgEarthNet.uav[5] utilizationSecIdle 4639.1751104107
scalar OsgEarthNet.uav[5] utilizationEnergyMission 5774.5067901611
scalar OsgEarthNet.uav[5] utilizationEnergyMaintenance 3815.9074020386
scalar OsgEarthNet.uav[5] utilizationEnergyCharge 8596.0034179688
scalar OsgEarthNet.uav[5] utilizationEnergyOverdrawMission 0
scalar OsgEarthNet.uav[5] utilizationEnergyOverdrawMaintenance 0
scalar OsgEarthNet.uav[5] utilizationCountMissions 2
scalar OsgEarthNet.uav[5] utilizationCountManeuversMission 21
scalar OsgEarthNet.uav[5] utilizationCountManeuversMaintenance 4
scalar OsgEarthNet.uav[5] utilizationCountChargeState 2
scalar OsgEarthNet.uav[5] utilizationCountOverdrawnAfterMission 0
scalar OsgEarthNet.uav[5] utilizationCountIdleState 2
scalar OsgEarthNet.uav[5] utilizationFail 0
scalar OsgEarthNet.uav[5] simulationTime 12666.299129599
scalar OsgEarthNet.uav[6] utilizationSecMission 680
scalar OsgEarthNet.uav[6] utilizationSecMaintenance 447.1303002674
scalar OsgEarthNet.uav[6] utilizationSecCharge 3910
scalar OsgEarthNet.uav[6] utilizationSecIdle 7629.167829332
scalar OsgEarthNet.uav[6] utilizationEnergyMission 3795.1695709229
scalar OsgEarthNet.uav[6] utilizationEnergyMaintenance 2118.5214958191
scalar OsgEarthNet.uav[6] utilizationEnergyCharge 5200
scalar OsgEarthNet.uav[6] utilizationEnergyOverdrawMission 0
scalar OsgEarthNet.uav[6] utilizationEnergyOverdrawMaintenance 16.768507003784
scalar OsgEarthNet.uav[6] utilizationCountMissions 1
scalar OsgEarthNet.uav[6] utilizationCountManeuversMission 34
scalar OsgEarthNet.uav[6] utilizationCountManeuversMaintenance 2
scalar OsgEarthNet.uav[6] utilizationCountChargeState 1
scalar OsgEarthNet.uav[6] utilizationCountOverdrawnAfterMission 1
scalar OsgEarthNet.uav[6] utilizationCountIdleState 2
scalar OsgEarthNet.uav[6] utilizationFail 0
scalar OsgEarthNet.uav[6] simulationTime 12666.299129599
scalar OsgEarthNet.uav[7] utilizationSecMission 1455.5613060273
scalar OsgEarthNet.uav[7] utilizationSecMaintenance 708.73382357211
scalar OsgEarthNet.uav[7] utilizationSecCharge 3960
scalar OsgEarthNet.uav[7] utilizationSecIdle 6542.003
scalar OsgEarthNet.uav[7] utilizationEnergyMission 7029.9899559021
scalar OsgEarthNet.uav[7] utilizationEnergyMaintenance 3383.2776746569
scalar OsgEarthNet.uav[7] utilizationEnergyCharge 5200
scalar OsgEarthNet.uav[7] utilizationEnergyOverdrawMission 0
scalar OsgEarthNet.uav[7] utilizationEnergyOverdrawMaintenance 170.45359802246
scalar OsgEarthNet.uav[7] utilizationCountMissions 2
scalar OsgEarthNet.uav[7] utilizationCountManeuversMission 49
scalar OsgEarthNet.uav[7] utilizationCountManeuversMaintenance 4
scalar OsgEarthNet.uav[7] utilizationCountChargeState 1
scalar OsgEarthNet.uav[7] utilizationCountOverdrawnAfterMission 1
scalar OsgEarthNet.uav[7] utilizationCountIdleState 2
scalar OsgEarthNet.uav[7] utilizationFail 0
scalar OsgEarthNet.uav[7] simulationTime 12666.299129599
scalar OsgEarthNet.uav[8] utilizationSecMission 1200
scalar OsgEarthNet.uav[8] utilizationSecMaintenance 949.00392578218
scalar OsgEarthNet.uav[8] utilizationSecCharge 6347.3820612706
scalar OsgEarthNet.uav[8] utilizationSecIdle 4169.9121425466
scalar OsgEarthNet.uav[8] utilizationEnergyMission 6279.580406189
scalar OsgEarthNet.uav[8] utilizationEnergyMaintenance 4286.5640487671
scalar OsgEarthNet.uav[8] utilizationEnergyCharge 9480.1611328125
scalar OsgEarthNet.uav[8] utilizationEnergyOverdrawMission 0
scalar OsgEarthNet.uav[8] utilizationEnergyOverdrawMaintenance 0
scalar OsgEarthNet.uav[8] utilizationCountMissions 2
scalar OsgEarthNet.uav[8] utilizationCountManeuversMission 60
scalar OsgEarthNet.uav[8] utilizationCountManeuversMaintenance 4
scalar OsgEarthNet.uav[8] utilizationCountChargeState 2
scalar OsgEarthNet.uav[8] utilizationCountOverdrawnAfterMission 0
scalar OsgEarthNet.uav[8] utilizationCountIdleState 2
scalar OsgEarthNet.uav[8] utilizationFail 0
scalar OsgEarthNet.uav[8] simulationTime 12666.299129599
scalar OsgEarthNet.uav[9] utilizationSecMission 680
scalar OsgEarthNet.uav[9] utilizationSecMaintenance 363.8841636065
scalar OsgEarthNet.uav[9] utilizationSecCharge 3840
scalar OsgEarthNet.uav[9] utilizationSecIdle 7782.4139659929
scalar OsgEarthNet.uav[9] utilizationEnergyMission 3750.3669967651
scalar OsgEarthNet.uav[9] utilizationEnergyMaintenance 1670.17420578
scalar OsgEarthNet.uav[9] utilizationEnergyCharge 5103.2236328125
scalar OsgEarthNet.uav[9] utilizationEnergyOverdrawMission 0
scalar OsgEarthNet.uav[9] utilizationEnergyOverdrawMaintenance 0
scalar OsgEarthNet.uav[9] utilizationCountMissions 1
scalar OsgEarthNet.uav[9] utilizationCountManeuversMission 34
scalar OsgEarthNet.uav[9] utilizationCountManeuversMaintenance 2
scalar OsgEarthNet.uav[9] utilizationCountChargeState 1
scalar OsgEarthNet.uav[9] utilizationCountOverdrawnAfterMission 0
scalar OsgEarthNet.uav[9] utilizationCountIdleState 2
scalar OsgEarthNet.uav[9] utilizationFail 0
scalar OsgEarthNet.uav[9] simulationTime 12666.299129599
scalar OsgEarthNet.uav[10] utilizationSecMission 1521.2503051606
scalar OsgEarthNet.uav[10] utilizationSecMaintenance 560.82569983629
scalar OsgEarthNet.uav[10] utilizationSecCharge 4414.2788559024
scalar OsgEarthNet.uav[10] utilizationSecIdle 6169.9432687002
scalar OsgEarthNet.uav[10] utilizationEnergyMission 7071.2817306519
scalar OsgEarthNet.uav[10] utilizationEnergyMaintenance 2614.1815414429
scalar OsgEarthNet.uav[10] utilizationEnergyCharge 6094.0270996094
scalar OsgEarthNet.uav[10] utilizationEnergyOverdrawMission 0
scalar OsgEarthNet.uav[10] utilizationEnergyOverdrawMaintenance 0
scalar OsgEarthNet.uav[10] utilizationCountMissions 2
scalar OsgEarthNet.uav[10] utilizationCountManeuversMission 24
scalar OsgEarthNet.uav[10] utilizationCountManeuversMaintenance 4
scalar OsgEarthNet.uav[10] utilizationCountChargeState 2
scalar OsgEarthNet.uav[10] utilizationCountOverdrawnAfterMission 0
scalar OsgEarthNet.uav[10] utilizationCountIdleState 2
scalar OsgEarthNet.uav[10] utilizationFail 0
scalar OsgEarthNet.uav[10] simulationTime 12666.299129599
scalar OsgEarthNet.uav[11] utilizationSecMission 600
scalar OsgEarthNet.uav[11] utilizationSecMaintenance 527.16988087142
scalar OsgEarthNet.uav[11] utilizationSecCharge 3870
scalar OsgEarthNet.uav[11] utilizationSecIdle 7669.128248728
scalar OsgEarthNet.uav[11] utilizationEnergyMission 3633.0085754395
scalar OsgEarthNet.uav[11] utilizationEnergyMaintenance 2582.1584205627
scalar OsgEarthNet.uav[11] utilizationEnergyCharge 5200
scalar OsgEarthNet.uav[11] utilizationEnergyOverdrawMission 0
scalar OsgEarthNet.uav[11] utilizationEnergyOverdrawMaintenance 87.077011108398
scalar OsgEarthNet.uav[11] utilizationCountMissions 1
scalar OsgEarthNet.uav[11] utilizationCountManeuversMission 30
scalar OsgEarthNet.uav[11] utilizationCountManeuversMaintenance 2
scalar OsgEarthNet.uav[11] utilizationCountChargeState 1
scalar OsgEarthNet.uav[11] utilizationCountOverdrawnAfterMission 1
scalar OsgEarthNet.uav[11] utilizationCountIdleState 2
scalar OsgEarthNet.uav[11] utilizationFail 0
scalar OsgEarthNet.uav[11] simulationTime 12666.299129599
scalar OsgEarthNet.uav[12] utilizationSecMission 1460
scalar OsgEarthNet.uav[12] utilizationSecMaintenance 653.6155799585
scalar OsgEarthNet.uav[12] utilizationSecCharge 4990.6805496409
scalar OsgEarthNet.uav[12] utilizationSecIdle 5562.002
scalar OsgEarthNet.uav[12] utilizationEnergyMission 7031.9435348511
scalar OsgEarthNet.uav[12] utilizationEnergyMaintenance 3186.7800521851
scalar OsgEarthNet.uav[12] utilizationEnergyCharge 7096.6397705078
scalar OsgEarthNet.uav[12] utilizationEnergyOverdrawMission 0
scalar OsgEarthNet.uav[12] utilizationEnergyOverdrawMaintenance 154.87696838379
scalar OsgEarthNet.uav[12] utilizationCountMissions 2
scalar OsgEarthNet.uav[12] utilizationCountManeuversMission 73
scalar OsgEarthNet.uav[12] utilizationCountManeuversMaintenance 4
scalar OsgEarthNet.uav[12] utilizationCountChargeState 2
scalar OsgEarthNet.uav[12] utilizationCountOverdrawnAfterMission 1
scalar OsgEarthNet.uav[12] utilizationCountIdleState 2
scalar OsgEarthNet.uav[12] utilizationFail 0
scalar OsgEarthNet.uav[12] simulationTime 12666.299129599
scalar OsgEarthNet.uav[13] utilizationSecMission 1264.4732299383
scalar OsgEarthNet.uav[13] utilizationSecMaintenance 812.52476983771
scalar OsgEarthNet.uav[13] utilizationSecCharge 6167.2991298234
scalar OsgEarthNet.uav[13] utilizationSecIdle 4422.001
scalar OsgEarthNet.uav[13] utilizationEnergyMission 6270.005771637
scalar OsgEarthNet.uav[13] utilizationEnergyMaintenance 3988.8276824951
scalar OsgEarthNet.uav[13] utilizationEnergyCharge 9174.2448730469
scalar OsgEarthNet.uav[13] utilizationEnergyOverdrawMission 0
scalar OsgEarthNet.uav[13] utilizationEnergyOverdrawMaintenance 238.69352722168
scalar OsgEarthNet.uav[13] utilizationCountMissions 2
scalar OsgEarthNet.uav[13] utilizationCountManeuversMission 40
scalar OsgEarthNet.uav[13] utilizationCountManeuversMaintenance 4
scalar OsgEarthNet.uav[13] utilizationCountChargeState 2
scalar OsgEarthNet.uav[13] utilizationCountOverdrawnAfterMission 1
scalar OsgEarthNet.uav[13] utilizationCountIdleState 2
scalar OsgEarthNet.uav[13] utilizationFail 0
scalar OsgEarthNet.uav[13] simulationTime 12666.299129599
scalar OsgEarthNet.uav[14] utilizationSecMission 1320
scalar OsgEarthNet.uav[14] utilizationSecMaintenance 790.69889465529
scalar OsgEarthNet.uav[14] utilizationSecCharge 4913.5972349441
scalar OsgEarthNet.uav[14] utilizationSecIdle 5642.002
scalar OsgEarthNet.uav[14] utilizationEnergyMission 6894.7510719299
scalar OsgEarthNet.uav[14] utilizationEnergyMaintenance 3785.1057357788
scalar OsgEarthNet.uav[14] utilizationEnergyCharge 6899.0294189453
scalar OsgEarthNet.uav[14] utilizationEnergyOverdrawMission 0
scalar OsgEarthNet.uav[14] utilizationEnergyOverdrawMaintenance 87.282783508301
scalar OsgEarthNet.uav[14] utilizationCountMissions 2
scalar OsgEarthNet.uav[14] utilizationCountManeuversMission 66
scalar OsgEarthNet.uav[14] utilizationCountManeuversMaintenance 4
scalar OsgEarthNet.uav[14] utilizationCountChargeState 2
scalar OsgEarthNet.uav[14] utilizationCountOverdrawnAfterMission 1
scalar OsgEarthNet.uav[14] utilizationCountIdleState 2
scalar OsgEarthNet.uav[14] utilizationFail 0
scalar OsgEarthNet.uav[14] simulationTime 12666.299129599
scalar OsgEarthNet.uav[15] utilizationSecMission 694.00169469977
scalar OsgEarthNet.uav[15] utilizationSecMaintenance 338.49695459722
scalar OsgEarthNet.uav[15] utilizationSecCharge 3680
scalar OsgEarthNet.uav[15] utilizationSecIdle 7953.7994803024
scalar OsgEarthNet.uav[15] utilizationEnergyMission 3344.1201934814
scalar OsgEarthNet.uav[15] utilizationEnergyMaintenance 1463.4942741394
scalar OsgEarthNet.uav[15] utilizationEnergyCharge 4772.3427734375
scalar OsgEarthNet.uav[15] utilizationEnergyOverdrawMission 0
scalar OsgEarthNet.uav[15] utilizationEnergyOverdrawMaintenance 0
scalar OsgEarthNet.uav[15] utilizationCountMissions 1
scalar OsgEarthNet.uav[15] utilizationCountManeuversMission 13
scalar OsgEarthNet.uav[15] utilizationCountManeuversMaintenance 2
scalar OsgEarthNet.uav[15] utilizationCountChargeState 1
scalar OsgEarthNet.uav[15] utilizationCountOverdrawnAfterMission 0
scalar OsgEarthNet.uav[15] utilizationCountIdleState 2
scalar OsgEarthNet.uav[15] utilizationFail 0
scalar OsgEarthNet.uav[15] simulationTime 12666.299129599
scalar OsgEarthNet.uav[16] utilizationSecMission 595.61789681617
scalar OsgEarthNet.uav[16] utilizationSecMaintenance 462.68687137477
scalar OsgEarthNet.uav[16] utilizationSecCharge 3740
scalar OsgEarthNet.uav[16] utilizationSecIdle 7867.9933614085
scalar OsgEarthNet.uav[16] utilizationEnergyMission 2848.4030456543
scalar OsgEarthNet.uav[16] utilizationEnergyMaintenance 2060.8403129578
scalar OsgEarthNet.uav[16] utilizationEnergyCharge 4943.2490234375
scalar OsgEarthNet.uav[16] utilizationEnergyOverdrawMission 0
scalar OsgEarthNet.uav[16] utilizationEnergyOverdrawMaintenance 0
scalar OsgEarthNet.uav[16] utilizationCountMissions 1
scalar OsgEarthNet.uav[16] utilizationCountManeuversMission 10
scalar OsgEarthNet.uav[16] utilizationCountManeuversMaintenance 2
scalar OsgEarthNet.uav[16] utilizationCountChargeState 1
scalar OsgEarthNet.uav[16] utilizationCountOverdrawnAfterMission 0
scalar OsgEarthNet.uav[16] utilizationCountIdleState 2
scalar OsgEarthNet.uav[16] utilizationFail 0
scalar OsgEarthNet.uav[16] simulationTime 12666.299129599
scalar OsgEarthNet.uav[17] utilizationSecMission 646.50241427425
scalar OsgEarthNet.uav[17] utilizationSecMaintenance 448.03426777924
scalar OsgEarthNet.uav[17] utilizationSecCharge 3830
scalar OsgEarthNet.uav[17] utilizationSecIdle 7741.7614475459
scalar OsgEarthNet.uav[17] utilizationEnergyMission 3087.7752304077
scalar OsgEarthNet.uav[17] utilizationEnergyMaintenance 1956.4647445679
scalar OsgEarthNet.uav[17] utilizationEnergyCharge 5044.2446289062
scalar OsgEarthNet.uav[17] utilizationEnergyOverdrawMission 0
scalar OsgEarthNet.uav[17] utilizationEnergyOverdrawMaintenance 0
scalar OsgEarthNet.uav[17] utilizationCountMissions 1
scalar OsgEarthNet.uav[17] utilizationCountManeuversMission 11
scalar OsgEarthNet.uav[17] utilizationCountManeuversMaintenance 2
scalar OsgEarthNet.uav[17] utilizationCountChargeState 1
scalar OsgEarthNet.uav[17] utilizationCountOverdrawnAfterMission 0
scalar OsgEarthNet.uav[17] utilizationCountIdleState 2
scalar OsgEarthNet.uav[17] utilizationFail 0
scalar OsgEarthNet.uav[17] simulationTime 12666.299129599
scalar OsgEarthNet.uav[18] utilizationSecMission 2266.8273476377
scalar OsgEarthNet.uav[18] utilizationSecMaintenance 832.87794989352
scalar OsgEarthNet.uav[18] utilizationSecCharge 8114.5928320682
scalar OsgEarthNet.uav[18] utilizationSecIdle 1452
scalar OsgEarthNet.uav[18] utilizationEnergyMission 10482.949050903
scalar OsgEarthNet.uav[18] utilizationEnergyMaintenance 3688.9856414795
scalar OsgEarthNet.uav[18] utilizationEnergyCharge 10929.509765625
scalar OsgEarthNet.uav[18] utilizationEnergyOverdrawMission 0
scalar OsgEarthNet.uav[18] utilizationEnergyOverdrawMaintenance 0
scalar OsgEarthNet.uav[18] utilizationCountMissions 3
scalar OsgEarthNet.uav[18] utilizationCountManeuversMission 89
scalar OsgEarthNet.uav[18] utilizationCountManeuversMaintenance 6
scalar OsgEarthNet.uav[18] utilizationCountChargeState 3
scalar OsgEarthNet.uav[18] utilizationCountOverdrawnAfterMission 0
scalar OsgEarthNet.uav[18] utilizationCountIdleState 3
scalar OsgEarthNet.uav[18] utilizationFail 0
scalar OsgEarthNet.uav[18] simulationTime 12666.299129599
scalar OsgEarthNet.uav[19] utilizationSecMission 1804.6389545333
scalar OsgEarthNet.uav[19] utilizationSecMaintenance 462.96285166215
scalar OsgEarthNet.uav[19] utilizationSecCharge 6806.696323404
scalar OsgEarthNet.uav[19] utilizationSecIdle 3592
scalar OsgEarthNet.uav[19] utilizationEnergyMission 8472.5033479132
scalar OsgEarthNet.uav[19] utilizationEnergyMaintenance 2033.2007980347
scalar OsgEarthNet.uav[19] utilizationEnergyCharge 10023.560546875
scalar OsgEarthNet.uav[19] utilizationEnergyOverdrawMission 0
scalar OsgEarthNet.uav[19] utilizationEnergyOverdrawMaintenance 0
scalar OsgEarthNet.uav[19] utilizationCountMissions 2
scalar OsgEarthNet.uav[19] utilizationCountManeuversMission 28
scalar OsgEarthNet.uav[19] utilizationCountManeuversMaintenance 3
scalar OsgEarthNet.uav[19] utilizationCountChargeState 2
scalar OsgEarthNet.uav[19] utilizationCountOverdrawnAfterMission 0
scalar OsgEarthNet.uav[19] utilizationCountIdleState 2
scalar OsgEarthNet.uav[19] utilizationFail 0
scalar OsgEarthNet.uav[19] simulationTime 12666.299129599
scalar OsgEarthNet.uav[20] utilizationSecMission 750.20472747825
scalar OsgEarthNet.uav[20] utilizationSecMaintenance 373.25723311718
scalar OsgEarthNet.uav[20] utilizationSecCharge 3840
scalar OsgEarthNet.uav[20] utilizationSecIdle 7702.836169004
scalar OsgEarthNet.uav[20] utilizationEnergyMission 3513.9232330322
scalar OsgEarthNet.uav[20] utilizationEnergyMaintenance 1664.8424301147
scalar OsgEarthNet.uav[20] utilizationEnergyCharge 5122.1694335938
scalar OsgEarthNet.uav[20] utilizationEnergyOverdrawMission 0
scalar OsgEarthNet.uav[20] utilizationEnergyOverdrawMaintenance 0
scalar OsgEarthNet.uav[20] utilizationCountMissions 1
scalar OsgEarthNet.uav[20] utilizationCountManeuversMission 11
scalar OsgEarthNet.uav[20] utilizationCountManeuversMaintenance 2
scalar OsgEarthNet.uav[20] utilizationCountChargeState 1
scalar OsgEarthNet.uav[20] utilizationCountOverdrawnAfterMission 0
scalar OsgEarthNet.uav[20] utilizationCountIdleState 2
scalar OsgEarthNet.uav[20] utilizationFail 0
scalar OsgEarthNet.uav[20] simulationTime 12666.299129599
scalar OsgEarthNet.uav[21] utilizationSecMission 640
scalar OsgEarthNet.uav[21] utilizationSecMaintenance 415.21104267299
scalar OsgEarthNet.uav[21] utilizationSecCharge 3930
scalar OsgEarthNet.uav[21] utilizationSecIdle 7681.0870869264
scalar OsgEarthNet.uav[21] utilizationEnergyMission 3184.9577827454
scalar OsgEarthNet.uav[21] utilizationEnergyMaintenance 1944.1441993713
scalar OsgEarthNet.uav[21] utilizationEnergyCharge 5200
scalar OsgEarthNet.uav[21] utilizationEnergyOverdrawMission 0
scalar OsgEarthNet.uav[21] utilizationEnergyOverdrawMaintenance 50.602130889893
scalar OsgEarthNet.uav[21] utilizationCountMissions 1
scalar OsgEarthNet.uav[21] utilizationCountManeuversMission 32
scalar OsgEarthNet.uav[21] utilizationCountManeuversMaintenance 2
scalar OsgEarthNet.uav[21] utilizationCountChargeState 1
scalar OsgEarthNet.uav[21] utilizationCountOverdrawnAfterMission 1
scalar OsgEarthNet.uav[21] utilizationCountIdleState 2
scalar OsgEarthNet.uav[21] utilizationFail 0
scalar OsgEarthNet.uav[21] simulationTime 12666.299129599
scalar OsgEarthNet.uav[22] utilizationSecMission 2316.3016227701
scalar OsgEarthNet.uav[22] utilizationSecMaintenance 677.99650682935
scalar OsgEarthNet.uav[22] utilizationSecCharge 7360
scalar OsgEarthNet.uav[22] utilizationSecIdle 2312
scalar OsgEarthNet.uav[22] utilizationEnergyMission 11623.114610844
scalar OsgEarthNet.uav[22] utilizationEnergyMaintenance 2960.1178052944
scalar OsgEarthNet.uav[22] utilizationEnergyCharge 9566.1528320312
scalar OsgEarthNet.uav[22] utilizationEnergyOverdrawMission 0
scalar OsgEarthNet.uav[22] utilizationEnergyOverdrawMaintenance 0
scalar OsgEarthNet.uav[22] utilizationCountMissions 3
scalar OsgEarthNet.uav[22] utilizationCountManeuversMission 66
scalar OsgEarthNet.uav[22] utilizationCountManeuversMaintenance 5
scalar OsgEarthNet.uav[22] utilizationCountChargeState 2
scalar OsgEarthNet.uav[22] utilizationCountOverdrawnAfterMission 0
scalar OsgEarthNet.uav[22] utilizationCountIdleState 3
scalar OsgEarthNet.uav[22] utilizationFail 0
scalar OsgEarthNet.uav[22] simulationTime 12666.299129599
scalar OsgEarthNet.uav[23] utilizationSecMission 580
scalar OsgEarthNet.uav[23] utilizationSecMaintenance 467.1303002674
scalar OsgEarthNet.uav[23] utilizationSecCharge 3920
scalar OsgEarthNet.uav[23] utilizationSecIdle 7699.167829332
scalar OsgEarthNet.uav[23] utilizationEnergyMission 2908.6666603088
scalar OsgEarthNet.uav[23] utilizationEnergyMaintenance 2155.9723243713
scalar OsgEarthNet.uav[23] utilizationEnergyCharge 5200
scalar OsgEarthNet.uav[23] utilizationEnergyOverdrawMission 0
scalar OsgEarthNet.uav[23] utilizationEnergyOverdrawMaintenance 60.207107543945
scalar OsgEarthNet.uav[23] utilizationCountMissions 1
scalar OsgEarthNet.uav[23] utilizationCountManeuversMission 29
scalar OsgEarthNet.uav[23] utilizationCountManeuversMaintenance 2
scalar OsgEarthNet.uav[23] utilizationCountChargeState 1
scalar OsgEarthNet.uav[23] utilizationCountOverdrawnAfterMission 1
scalar OsgEarthNet.uav[23] utilizationCountIdleState 2
scalar OsgEarthNet.uav[23] utilizationFail 0
scalar OsgEarthNet.uav[23] simulationTime 12666.299129599
scalar OsgEarthNet.uav[24] utilizationSecMission 1396.3500981245
scalar OsgEarthNet.uav[24] utilizationSecMaintenance 715.82540154452
scalar OsgEarthNet.uav[24] utilizationSecCharge 5552.1221225475
scalar OsgEarthNet.uav[24] utilizationSecIdle 5002.0005073828
scalar OsgEarthNet.uav[24] utilizationEnergyMission 6525.1700286865
scalar OsgEarthNet.uav[24] utilizationEnergyMaintenance 3541.7946510315
scalar OsgEarthNet.uav[24] utilizationEnergyCharge 8038.681640625
scalar OsgEarthNet.uav[24] utilizationEnergyOverdrawMission 0
scalar OsgEarthNet.uav[24] utilizationEnergyOverdrawMaintenance 18.478149414062
scalar OsgEarthNet.uav[24] utilizationCountMissions 2
scalar OsgEarthNet.uav[24] utilizationCountManeuversMission 40
scalar OsgEarthNet.uav[24] utilizationCountManeuversMaintenance 4
scalar OsgEarthNet.uav[24] utilizationCountChargeState 2
scalar OsgEarthNet.uav[24] utilizationCountOverdrawnAfterMission 1
scalar OsgEarthNet.uav[24] utilizationCountIdleState 2
scalar OsgEarthNet.uav[24] utilizationFail 0
scalar OsgEarthNet.uav[24] simulationTime 12666.299129599
scalar OsgEarthNet.uav[25] utilizationSecMission 1414.7676060299
scalar OsgEarthNet.uav[25] utilizationSecMaintenance 752.89512092791
scalar OsgEarthNet.uav[25] utilizationSecCharge 6051.1851386107
scalar OsgEarthNet.uav[25] utilizationSecIdle 4447.4502640309
scalar OsgEarthNet.uav[25] utilizationEnergyMission 6374.2379684448
scalar OsgEarthNet.uav[25] utilizationEnergyMaintenance 3542.4561500549
scalar OsgEarthNet.uav[25] utilizationEnergyCharge 8942.8510742188
scalar OsgEarthNet.uav[25] utilizationEnergyOverdrawMission 0
scalar OsgEarthNet.uav[25] utilizationEnergyOverdrawMaintenance 0
scalar OsgEarthNet.uav[25] utilizationCountMissions 2
scalar OsgEarthNet.uav[25] utilizationCountManeuversMission 24
scalar OsgEarthNet.uav[25] utilizationCountManeuversMaintenance 4
scalar OsgEarthNet.uav[25] utilizationCountChargeState 2
scalar OsgEarthNet.uav[25] utilizationCountOverdrawnAfterMission 0
scalar OsgEarthNet.uav[25] utilizationCountIdleState 2
scalar OsgEarthNet.uav[25] utilizationFail 0
scalar OsgEarthNet.uav[25] simulationTime 12666.299129599
scalar OsgEarthNet.uav[26] utilizationSecMission 801.27136581559
scalar OsgEarthNet.uav[26] utilizationSecMaintenance 612.62740582773
scalar OsgEarthNet.uav[26] utilizationSecCharge 3900
scalar OsgEarthNet.uav[26] utilizationSecIdle 7352.3993579561
scalar OsgEarthNet.uav[26] utilizationEnergyMission 4508.2348138059
scalar OsgEarthNet.uav[26] utilizationEnergyMaintenance 3105.4215812683
scalar OsgEarthNet.uav[26] utilizationEnergyCharge 5200
scalar OsgEarthNet.uav[26] utilizationEnergyOverdrawMission 0
scalar OsgEarthNet.uav[26] utilizationEnergyOverdrawMaintenance 65.4638671875
scalar OsgEarthNet.uav[26] utilizationCountMissions 1
scalar OsgEarthNet.uav[26] utilizationCountManeuversMission 41
scalar OsgEarthNet.uav[26] utilizationCountManeuversMaintenance 3
scalar OsgEarthNet.uav[26] utilizationCountChargeState 1
scalar OsgEarthNet.uav[26] utilizationCountOverdrawnAfterMission 1
scalar OsgEarthNet.uav[26] utilizationCountIdleState 2
scalar OsgEarthNet.uav[26] utilizationFail 0
scalar OsgEarthNet.uav[26] simulationTime 12666.299129599
scalar OsgEarthNet.uav[27] utilizationSecMission 520
scalar OsgEarthNet.uav[27] utilizationSecMaintenance 527.16988087142
scalar OsgEarthNet.uav[27] utilizationSecCharge 3910
scalar OsgEarthNet.uav[27] utilizationSecIdle 7709.128248728
scalar OsgEarthNet.uav[27] utilizationEnergyMission 2754.7216682434
scalar OsgEarthNet.uav[27] utilizationEnergyMaintenance 2461.8668556213
scalar OsgEarthNet.uav[27] utilizationEnergyCharge 5200
scalar OsgEarthNet.uav[27] utilizationEnergyOverdrawMission 0
scalar OsgEarthNet.uav[27] utilizationEnergyOverdrawMaintenance 130.97331237793
scalar OsgEarthNet.uav[27] utilizationCountMissions 1
scalar OsgEarthNet.uav[27] utilizationCountManeuversMission 26
scalar OsgEarthNet.uav[27] utilizationCountManeuversMaintenance 2
scalar OsgEarthNet.uav[27] utilizationCountChargeState 1
scalar OsgEarthNet.uav[27] utilizationCountOverdrawnAfterMission 1
scalar OsgEarthNet.uav[27] utilizationCountIdleState 2
scalar OsgEarthNet.uav[27] utilizationFail 0
scalar OsgEarthNet.uav[27] simulationTime 12666.299129599
scalar OsgEarthNet.uav[28] utilizationSecMission 660
scalar OsgEarthNet.uav[28] utilizationSecMaintenance 430.60696956236
scalar OsgEarthNet.uav[28] utilizationSecCharge 3920
scalar OsgEarthNet.uav[28] utilizationSecIdle 7655.6911600371
scalar OsgEarthNet.uav[28] utilizationEnergyMission 3293.2026863098
scalar OsgEarthNet.uav[28] utilizationEnergyMaintenance 2034.7805747986
scalar OsgEarthNet.uav[28] utilizationEnergyCharge 5200
scalar OsgEarthNet.uav[28] utilizationEnergyOverdrawMission 0
scalar OsgEarthNet.uav[28] utilizationEnergyOverdrawMaintenance 310.14532470703
scalar OsgEarthNet.uav[28] utilizationCountMissions 1
scalar OsgEarthNet.uav[28] utilizationCountManeuversMission 33
scalar OsgEarthNet.uav[28] utilizationCountManeuversMaintenance 2
scalar OsgEarthNet.uav[28] utilizationCountChargeState 1
scalar OsgEarthNet.uav[28] utilizationCountOverdrawnAfterMission 1
scalar OsgEarthNet.uav[28] utilizationCountIdleState 2
scalar OsgEarthNet.uav[28] utilizationFail 0
scalar OsgEarthNet.uav[28] simulationTime 12666.299129599
scalar OsgEarthNet.uav[29] utilizationSecMission 750.20472747825
scalar OsgEarthNet.uav[29] utilizationSecMaintenance 373.25723311718
scalar OsgEarthNet.uav[29] utilizationSecCharge 3730
scalar OsgEarthNet.uav[29] utilizationSecIdle 7812.836169004
scalar OsgEarthNet.uav[29] utilizationEnergyMission 3171.7064361572
scalar OsgEarthNet.uav[29] utilizationEnergyMaintenance 1741.8721542358
scalar OsgEarthNet.uav[29] utilizationEnergyCharge 4842.1923828125
scalar OsgEarthNet.uav[29] utilizationEnergyOverdrawMission 0
scalar OsgEarthNet.uav[29] utilizationEnergyOverdrawMaintenance 0
scalar OsgEarthNet.uav[29] utilizationCountMissions 1
scalar OsgEarthNet.uav[29] utilizationCountManeuversMission 11
scalar OsgEarthNet.uav[29] utilizationCountManeuversMaintenance 2
scalar OsgEarthNet.uav[29] utilizationCountChargeState 1
scalar OsgEarthNet.uav[29] utilizationCountOverdrawnAfterMission 0
scalar OsgEarthNet.uav[29] utilizationCountIdleState 2
scalar OsgEarthNet.uav[29] utilizationFail 0
scalar OsgEarthNet.uav[29] simulationTime 12666.299129599
scalar OsgEarthNet.uav[30] utilizationSecMission 1130.0379622933
scalar OsgEarthNet.uav[30] utilizationSecMaintenance 1007.7717073907
scalar OsgEarthNet.uav[30] utilizationSecCharge 4101.2877809374
scalar OsgEarthNet.uav[30] utilizationSecIdle 6427.2006789781
scalar OsgEarthNet.uav[30] utilizationEnergyMission 5690.9917793274
scalar OsgEarthNet.uav[30] utilizationEnergyMaintenance 4596.3681869507
scalar OsgEarthNet.uav[30] utilizationEnergyCharge 5555.7346191406
scalar OsgEarthNet.uav[30] utilizationEnergyOverdrawMission 0
scalar OsgEarthNet.uav[30] utilizationEnergyOverdrawMaintenance 0
scalar OsgEarthNet.uav[30] utilizationCountMissions 2
scalar OsgEarthNet.uav[30] utilizationCountManeuversMission 39
scalar OsgEarthNet.uav[30] utilizationCountManeuversMaintenance 4
scalar OsgEarthNet.uav[30] utilizationCountChargeState 2
scalar OsgEarthNet.uav[30] utilizationCountOverdrawnAfterMission 0
scalar OsgEarthNet.uav[30] utilizationCountIdleState 2
scalar OsgEarthNet.uav[30] utilizationFail 0
scalar OsgEarthNet.uav[30] simulationTime 12666.299129599
scalar OsgEarthNet.uav[31] utilizationSecMission 1151.3548908655
scalar OsgEarthNet.uav[31] utilizationSecMaintenance 867.30727461823
scalar OsgEarthNet.uav[31] utilizationSecCharge 3850
scalar OsgEarthNet.uav[31] utilizationSecIdle 6797.6359641157
scalar OsgEarthNet.uav[31] utilizationEnergyMission 5676.9967651367
scalar OsgEarthNet.uav[31] utilizationEnergyMaintenance 3772.0282660657
scalar OsgEarthNet.uav[31] utilizationEnergyCharge 5072.2353515625
scalar OsgEarthNet.uav[31] utilizationEnergyOverdrawMission 0
scalar OsgEarthNet.uav[31] utilizationEnergyOverdrawMaintenance 0
scalar OsgEarthNet.uav[31] utilizationCountMissions 2
scalar OsgEarthNet.uav[31] utilizationCountManeuversMission 35
scalar OsgEarthNet.uav[31] utilizationCountManeuversMaintenance 4
scalar OsgEarthNet.uav[31] utilizationCountChargeState 1
scalar OsgEarthNet.uav[31] utilizationCountOverdrawnAfterMission 0
scalar OsgEarthNet.uav[31] utilizationCountIdleState 2
scalar OsgEarthNet.uav[31] utilizationFail 0
scalar OsgEarthNet.uav[31] simulationTime 12666.299129599
scalar OsgEarthNet.uav[32] utilizationSecMission 887.1741082606
scalar OsgEarthNet.uav[32] utilizationSecMaintenance 251.20511066264
scalar OsgEarthNet.uav[32] utilizationSecCharge 3840
scalar OsgEarthNet.uav[32] utilizationSecIdle 7687.9189106762
scalar OsgEarthNet.uav[32] utilizationEnergyMission 4323.5648498535
scalar OsgEarthNet.uav[32] utilizationEnergyMaintenance 1031.6018981934
scalar OsgEarthNet.uav[32] utilizationEnergyCharge 5058.7944335938
scalar OsgEarthNet.uav[32] utilizationEnergyOverdrawMission 0
scalar OsgEarthNet.uav[32] utilizationEnergyOverdrawMaintenance 0
scalar OsgEarthNet.uav[32] utilizationCountMissions 1
scalar OsgEarthNet.uav[32] utilizationCountManeuversMission 14
scalar OsgEarthNet.uav[32] utilizationCountManeuversMaintenance 2
scalar OsgEarthNet.uav[32] utilizationCountChargeState 1
scalar OsgEarthNet.uav[32] utilizationCountOverdrawnAfterMission 0
scalar OsgEarthNet.uav[32] utilizationCountIdleState 2
scalar OsgEarthNet.uav[32] utilizationFail 0
scalar OsgEarthNet.uav[32] simulationTime 12666.299129599
scalar OsgEarthNet.uav[33] utilizationSecMission 760.62515258028
scalar OsgEarthNet.uav[33] utilizationSecMaintenance 280.27216773088
scalar OsgEarthNet.uav[33] utilizationSecCharge 3690
scalar OsgEarthNet.uav[33] utilizationSecIdle 7935.4008092883
scalar OsgEarthNet.uav[33] utilizationEnergyMission 3484.3184890747
scalar OsgEarthNet.uav[33] utilizationEnergyMaintenance 1341.4561882019
scalar OsgEarthNet.uav[33] utilizationEnergyCharge 4818.4248046875
scalar OsgEarthNet.uav[33] utilizationEnergyOverdrawMission 0
scalar OsgEarthNet.uav[33] utilizationEnergyOverdrawMaintenance 0
scalar OsgEarthNet.uav[33] utilizationCountMissions 1
scalar OsgEarthNet.uav[33] utilizationCountManeuversMission 12
scalar OsgEarthNet.uav[33] utilizationCountManeuversMaintenance 2
scalar OsgEarthNet.uav[33] utilizationCountChargeState 1
scalar OsgEarthNet.uav[33] utilizationCountOverdrawnAfterMission 0
scalar OsgEarthNet.uav[33] utilizationCountIdleState 2
scalar OsgEarthNet.uav[33] utilizationFail 0
scalar OsgEarthNet.uav[33] simulationTime 12666.299129599
scalar OsgEarthNet.uav[34] utilizationSecMission 896.35009812453
scalar OsgEarthNet.uav[34] utilizationSecMaintenance 208.43309417374
scalar OsgEarthNet.uav[34] utilizationSecCharge 3860
scalar OsgEarthNet.uav[34] utilizationSecIdle 7701.5149373012
scalar OsgEarthNet.uav[34] utilizationEnergyMission 3953.2055969238
scalar OsgEarthNet.uav[34] utilizationEnergyMaintenance 1030.2906112671
scalar OsgEarthNet.uav[34] utilizationEnergyCharge 5036.1245117188
scalar OsgEarthNet.uav[34] utilizationEnergyOverdrawMission 0
scalar OsgEarthNet.uav[34] utilizationEnergyOverdrawMaintenance 0
scalar OsgEarthNet.uav[34] utilizationCountMissions 1
scalar OsgEarthNet.uav[34] utilizationCountManeuversMission 15
scalar OsgEarthNet.uav[34] utilizationCountManeuversMaintenance 2
scalar OsgEarthNet.uav[34] utilizationCountChargeState 1
scalar OsgEarthNet.uav[34] utilizationCountOverdrawnAfterMission 0
scalar OsgEarthNet.uav[34] utilizationCountIdleState 2
scalar OsgEarthNet.uav[34] utilizationFail 0
scalar OsgEarthNet.uav[34] simulationTime 12666.299129599
scalar OsgEarthNet.uav[35] utilizationSecMission 720
scalar OsgEarthNet.uav[35] utilizationSecMaintenance 262.82841927123
scalar OsgEarthNet.uav[35] utilizationSecCharge 3900
scalar OsgEarthNet.uav[35] utilizationSecIdle 7783.4697103282
scalar OsgEarthNet.uav[35] utilizationEnergyMission 3655.9296836853
scalar OsgEarthNet.uav[35] utilizationEnergyMaintenance 1211.1755485535
scalar OsgEarthNet.uav[35] utilizationEnergyCharge 5134.34765625
scalar OsgEarthNet.uav[35] utilizationEnergyOverdrawMission 0
scalar OsgEarthNet.uav[35] utilizationEnergyOverdrawMaintenance 0
scalar OsgEarthNet.uav[35] utilizationCountMissions 1
scalar OsgEarthNet.uav[35] utilizationCountManeuversMission 36
scalar OsgEarthNet.uav[35] utilizationCountManeuversMaintenance 2
scalar OsgEarthNet.uav[35] utilizationCountChargeState 1
scalar OsgEarthNet.uav[35] utilizationCountOverdrawnAfterMission 0
scalar OsgEarthNet.uav[35] utilizationCountIdleState 2
scalar OsgEarthNet.uav[35] utilizationFail 0
scalar OsgEarthNet.uav[35] simulationTime 12666.299129599
scalar OsgEarthNet.uav[36] utilizationSecMission 666.62411008335
scalar OsgEarthNet.uav[36] utilizationSecMaintenance 497.6183825969
scalar OsgEarthNet.uav[36] utilizationSecCharge 3870
scalar OsgEarthNet.uav[36] utilizationSecIdle 7632.0556369192
scalar OsgEarthNet.uav[36] utilizationEnergyMission 2757.7665634155
scalar OsgEarthNet.uav[36] utilizationEnergyMaintenance 2273.116771698
scalar OsgEarthNet.uav[36] utilizationEnergyCharge 5140.755859375
scalar OsgEarthNet.uav[36] utilizationEnergyOverdrawMission 0
scalar OsgEarthNet.uav[36] utilizationEnergyOverdrawMaintenance 0
scalar OsgEarthNet.uav[36] utilizationCountMissions 1
scalar OsgEarthNet.uav[36] utilizationCountManeuversMission 11
scalar OsgEarthNet.uav[36] utilizationCountManeuversMaintenance 2
scalar OsgEarthNet.uav[36] utilizationCountChargeState 1
scalar OsgEarthNet.uav[36] utilizationCountOverdrawnAfterMission 0
scalar OsgEarthNet.uav[36] utilizationCountIdleState 2
scalar OsgEarthNet.uav[36] utilizationFail 0
scalar OsgEarthNet.uav[36] simulationTime 12666.299129599
scalar OsgEarthNet.uav[37] utilizationSecMission 631.74159133852
scalar OsgEarthNet.uav[37] utilizationSecMaintenance 414.50798074032
scalar OsgEarthNet.uav[37] utilizationSecCharge 3840
scalar OsgEarthNet.uav[37] utilizationSecIdle 7780.0485575206
scalar OsgEarthNet.uav[37] utilizationEnergyMission 2999.2595062256
scalar OsgEarthNet.uav[37] utilizationEnergyMaintenance 2055.2963485718
scalar OsgEarthNet.uav[37] utilizationEnergyCharge 5054.5537109375
scalar OsgEarthNet.uav[37] utilizationEnergyOverdrawMission 0
scalar OsgEarthNet.uav[37] utilizationEnergyOverdrawMaintenance 0
scalar OsgEarthNet.uav[37] utilizationCountMissions 1
scalar OsgEarthNet.uav[37] utilizationCountManeuversMission 12
scalar OsgEarthNet.uav[37] utilizationCountManeuversMaintenance 2
scalar OsgEarthNet.uav[37] utilizationCountChargeState 1
scalar OsgEarthNet.uav[37] utilizationCountOverdrawnAfterMission 0
scalar OsgEarthNet.uav[37] utilizationCountIdleState 2
scalar OsgEarthNet.uav[37] utilizationFail 0
scalar OsgEarthNet.uav[37] simulationTime 12666.299129599
scalar OsgEarthNet.uav[38] utilizationSecMission 620
scalar OsgEarthNet.uav[38] utilizationSecMaintenance 390.60696956236
scalar OsgEarthNet.uav[38] utilizationSecCharge 3860
scalar OsgEarthNet.uav[38] utilizationSecIdle 7795.6911600371
scalar OsgEarthNet.uav[38] utilizationEnergyMission 3214.5609779358
scalar OsgEarthNet.uav[38] utilizationEnergyMaintenance 1688.4564933777
scalar OsgEarthNet.uav[38] utilizationEnergyCharge 5053.6997070312
scalar OsgEarthNet.uav[38] utilizationEnergyOverdrawMission 0
scalar OsgEarthNet.uav[38] utilizationEnergyOverdrawMaintenance 0
scalar OsgEarthNet.uav[38] utilizationCountMissions 1
scalar OsgEarthNet.uav[38] utilizationCountManeuversMission 31
scalar OsgEarthNet.uav[38] utilizationCountManeuversMaintenance 2
scalar OsgEarthNet.uav[38] utilizationCountChargeState 1
scalar OsgEarthNet.uav[38] utilizationCountOverdrawnAfterMission 0
scalar OsgEarthNet.uav[38] utilizationCountIdleState 2
scalar OsgEarthNet.uav[38] utilizationFail 0
scalar OsgEarthNet.uav[38] simulationTime 12666.299129599
scalar OsgEarthNet.uav[39] utilizationSecMission 1631.5083439111
scalar OsgEarthNet.uav[39] utilizationSecMaintenance 537.74495841312
scalar OsgEarthNet.uav[39] utilizationSecCharge 5345.5311663255
scalar OsgEarthNet.uav[39] utilizationSecIdle 5151.5136609497
scalar OsgEarthNet.uav[39] utilizationEnergyMission 7488.0640716553
scalar OsgEarthNet.uav[39] utilizationEnergyMaintenance 2433.7789649963
scalar OsgEarthNet.uav[39] utilizationEnergyCharge 7732.0419921875
scalar OsgEarthNet.uav[39] utilizationEnergyOverdrawMission 0
scalar OsgEarthNet.uav[39] utilizationEnergyOverdrawMaintenance 0
scalar OsgEarthNet.uav[39] utilizationCountMissions 2
scalar OsgEarthNet.uav[39] utilizationCountManeuversMission 25
scalar OsgEarthNet.uav[39] utilizationCountManeuversMaintenance 4
scalar OsgEarthNet.uav[39] utilizationCountChargeState 2
scalar OsgEarthNet.uav[39] utilizationCountOverdrawnAfterMission 0
scalar OsgEarthNet.uav[39] utilizationCountIdleState 2
scalar OsgEarthNet.uav[39] utilizationFail 0
scalar OsgEarthNet.uav[39] simulationTime 12666.299129599
scalar OsgEarthNet.uav[40] utilizationSecMission 600
scalar OsgEarthNet.uav[40] utilizationSecMaintenance 423.8841636065
scalar OsgEarthNet.uav[40] utilizationSecCharge 3900
scalar OsgEarthNet.uav[40] utilizationSecIdle 7742.4139659929
scalar OsgEarthNet.uav[40] utilizationEnergyMission 3227.410484314
scalar OsgEarthNet.uav[40] utilizationEnergyMaintenance 2088.6231269836
scalar OsgEarthNet.uav[40] utilizationEnergyCharge 5200
scalar OsgEarthNet.uav[40] utilizationEnergyOverdrawMission 0
scalar OsgEarthNet.uav[40] utilizationEnergyOverdrawMaintenance 261.59912109375
scalar OsgEarthNet.uav[40] utilizationCountMissions 1
scalar OsgEarthNet.uav[40] utilizationCountManeuversMission 30
scalar OsgEarthNet.uav[40] utilizationCountManeuversMaintenance 2
scalar OsgEarthNet.uav[40] utilizationCountChargeState 1
scalar OsgEarthNet.uav[40] utilizationCountOverdrawnAfterMission 1
scalar OsgEarthNet.uav[40] utilizationCountIdleState 2
scalar OsgEarthNet.uav[40] utilizationFail 0
scalar OsgEarthNet.uav[40] simulationTime 12666.299129599
scalar OsgEarthNet.uav[41] utilizationSecMission 540
scalar OsgEarthNet.uav[41] utilizationSecMaintenance 507.16988087142
scalar OsgEarthNet.uav[41] utilizationSecCharge 3870
scalar OsgEarthNet.uav[41] utilizationSecIdle 7749.128248728
scalar OsgEarthNet.uav[41] utilizationEnergyMission 2906.4943885803
scalar OsgEarthNet.uav[41] utilizationEnergyMaintenance 2342.4531364441
scalar OsgEarthNet.uav[41] utilizationEnergyCharge 5183.037109375
scalar OsgEarthNet.uav[41] utilizationEnergyOverdrawMission 0
scalar OsgEarthNet.uav[41] utilizationEnergyOverdrawMaintenance 0
scalar OsgEarthNet.uav[41] utilizationCountMissions 1
scalar OsgEarthNet.uav[41] utilizationCountManeuversMission 27
scalar OsgEarthNet.uav[41] utilizationCountManeuversMaintenance 2
scalar OsgEarthNet.uav[41] utilizationCountChargeState 1
scalar OsgEarthNet.uav[41] utilizationCountOverdrawnAfterMission 0
scalar OsgEarthNet.uav[41] utilizationCountIdleState 2
scalar OsgEarthNet.uav[41] utilizationFail 0
scalar OsgEarthNet.uav[41] simulationTime 12666.299129599
scalar OsgEarthNet.uav[42] utilizationSecMission 750.20472747826
scalar OsgEarthNet.uav[42] utilizationSecMaintenance 255.5651663541
scalar OsgEarthNet.uav[42] utilizationSecCharge 3660
scalar OsgEarthNet.uav[42] utilizationSecIdle 8000.5282357671
scalar OsgEarthNet.uav[42] utilizationEnergyMission 3616.7475738525
scalar OsgEarthNet.uav[42] utilizationEnergyMaintenance 1209.8811759949
scalar OsgEarthNet.uav[42] utilizationEnergyCharge 4762.8540039062
scalar OsgEarthNet.uav[42] utilizationEnergyOverdrawMission 0
scalar OsgEarthNet.uav[42] utilizationEnergyOverdrawMaintenance 0
scalar OsgEarthNet.uav[42] utilizationCountMissions 1
scalar OsgEarthNet.uav[42] utilizationCountManeuversMission 11
scalar OsgEarthNet.uav[42] utilizationCountManeuversMaintenance 2
scalar OsgEarthNet.uav[42] utilizationCountChargeState 1
scalar OsgEarthNet.uav[42] utilizationCountOverdrawnAfterMission 0
scalar OsgEarthNet.uav[42] utilizationCountIdleState 2
scalar OsgEarthNet.uav[42] utilizationFail 0
scalar OsgEarthNet.uav[42] simulationTime 12666.299129599
scalar OsgEarthNet.uav[43] utilizationSecMission 735.14326557473
scalar OsgEarthNet.uav[43] utilizationSecMaintenance 350.53687742834
scalar OsgEarthNet.uav[43] utilizationSecCharge 3810
scalar OsgEarthNet.uav[43] utilizationSecIdle 7770.6179865964
scalar OsgEarthNet.uav[43] utilizationEnergyMission 3097.4993591309
scalar OsgEarthNet.uav[43] utilizationEnergyMaintenance 1775.528465271
scalar OsgEarthNet.uav[43] utilizationEnergyCharge 5075.2099609375
scalar OsgEarthNet.uav[43] utilizationEnergyOverdrawMission 0
scalar OsgEarthNet.uav[43] utilizationEnergyOverdrawMaintenance 0
scalar OsgEarthNet.uav[43] utilizationCountMissions 1
scalar OsgEarthNet.uav[43] utilizationCountManeuversMission 11
scalar OsgEarthNet.uav[43] utilizationCountManeuversMaintenance 2
scalar OsgEarthNet.uav[43] utilizationCountChargeState 1
scalar OsgEarthNet.uav[43] utilizationCountOverdrawnAfterMission 0
scalar OsgEarthNet.uav[43] utilizationCountIdleState 2
scalar OsgEarthNet.uav[43] utilizationFail 0
scalar OsgEarthNet.uav[43] simulationTime 12666.299129599
scalar OsgEarthNet.uav[44] utilizationSecMission 743.20678019818
scalar OsgEarthNet.uav[44] utilizationSecMaintenance 295.89994741134
scalar OsgEarthNet.uav[44] utilizationSecCharge 3780
scalar OsgEarthNet.uav[44] utilizationSecIdle 7847.1914019899
scalar OsgEarthNet.uav[44] utilizationEnergyMission 3519.0408630371
scalar OsgEarthNet.uav[44] utilizationEnergyMaintenance 1421.4895248413
scalar OsgEarthNet.uav[44] utilizationEnergyCharge 4940.5288085938
scalar OsgEarthNet.uav[44] utilizationEnergyOverdrawMission 0
scalar OsgEarthNet.uav[44] utilizationEnergyOverdrawMaintenance 0
scalar OsgEarthNet.uav[44] utilizationCountMissions 1
scalar OsgEarthNet.uav[44] utilizationCountManeuversMission 12
scalar OsgEarthNet.uav[44] utilizationCountManeuversMaintenance 2
scalar OsgEarthNet.uav[44] utilizationCountChargeState 1
scalar OsgEarthNet.uav[44] utilizationCountOverdrawnAfterMission 0
scalar OsgEarthNet.uav[44] utilizationCountIdleState 2
scalar OsgEarthNet.uav[44] utilizationFail 0
scalar OsgEarthNet.uav[44] simulationTime 12666.299129599
scalar OsgEarthNet.uav[45] utilizationSecMission 750.20472747826
scalar OsgEarthNet.uav[45] utilizationSecMaintenance 255.5651663541
scalar OsgEarthNet.uav[45] utilizationSecCharge 3700
scalar OsgEarthNet.uav[45] utilizationSecIdle 7960.5282357671
scalar OsgEarthNet.uav[45] utilizationEnergyMission 3724.9068450928
scalar OsgEarthNet.uav[45] utilizationEnergyMaintenance 1116.0892753601
scalar OsgEarthNet.uav[45] utilizationEnergyCharge 4803.85546875
scalar OsgEarthNet.uav[45] utilizationEnergyOverdrawMission 0
scalar OsgEarthNet.uav[45] utilizationEnergyOverdrawMaintenance 0
scalar OsgEarthNet.uav[45] utilizationCountMissions 1
scalar OsgEarthNet.uav[45] utilizationCountManeuversMission 11
scalar OsgEarthNet.uav[45] utilizationCountManeuversMaintenance 2
scalar OsgEarthNet.uav[45] utilizationCountChargeState 1
scalar OsgEarthNet.uav[45] utilizationCountOverdrawnAfterMission 0
scalar OsgEarthNet.uav[45] utilizationCountIdleState 2
scalar OsgEarthNet.uav[45] utilizationFail 0
scalar OsgEarthNet.uav[45] simulationTime 12666.299129599
scalar OsgEarthNet.uav[46] utilizationSecMission 616.39326839755
scalar OsgEarthNet.uav[46] utilizationSecMaintenance 492.35064082849
scalar OsgEarthNet.uav[46] utilizationSecCharge 3830
scalar OsgEarthNet.uav[46] utilizationSecIdle 7727.5542203734
scalar OsgEarthNet.uav[46] utilizationEnergyMission 2816.2820281982
scalar OsgEarthNet.uav[46] utilizationEnergyMaintenance 2234.2833976746
scalar OsgEarthNet.uav[46] utilizationEnergyCharge 5050.5639648438
scalar OsgEarthNet.uav[46] utilizationEnergyOverdrawMission 0
scalar OsgEarthNet.uav[46] utilizationEnergyOverdrawMaintenance 0
scalar OsgEarthNet.uav[46] utilizationCountMissions 1
scalar OsgEarthNet.uav[46] utilizationCountManeuversMission 10
scalar OsgEarthNet.uav[46] utilizationCountManeuversMaintenance 2
scalar OsgEarthNet.uav[46] utilizationCountChargeState 1
scalar OsgEarthNet.uav[46] utilizationCountOverdrawnAfterMission 0
scalar OsgEarthNet.uav[46] utilizationCountIdleState 2
scalar OsgEarthNet.uav[46] utilizationFail 0
scalar OsgEarthNet.uav[46] simulationTime 12666.299129599
scalar OsgEarthNet.uav[47] utilizationSecMission 621.17604176187
scalar OsgEarthNet.uav[47] utilizationSecMaintenance 378.2815995389
scalar OsgEarthNet.uav[47] utilizationSecCharge 3760
scalar OsgEarthNet.uav[47] utilizationSecIdle 7906.8404882987
scalar OsgEarthNet.uav[47] utilizationEnergyMission 3118.8653106689
scalar OsgEarthNet.uav[47] utilizationEnergyMaintenance 1856.5840568542
scalar OsgEarthNet.uav[47] utilizationEnergyCharge 4946.97265625
scalar OsgEarthNet.uav[47] utilizationEnergyOverdrawMission 0
scalar OsgEarthNet.uav[47] utilizationEnergyOverdrawMaintenance 0
scalar OsgEarthNet.uav[47] utilizationCountMissions 1
scalar OsgEarthNet.uav[47] utilizationCountManeuversMission 12
scalar OsgEarthNet.uav[47] utilizationCountManeuversMaintenance 2
scalar OsgEarthNet.uav[47] utilizationCountChargeState 1
scalar OsgEarthNet.uav[47] utilizationCountOverdrawnAfterMission 0
scalar OsgEarthNet.uav[47] utilizationCountIdleState 2
scalar OsgEarthNet.uav[47] utilizationFail 0
scalar OsgEarthNet.uav[47] simulationTime 12666.299129599
scalar OsgEarthNet.uav[48] utilizationSecMission 1026.2125358329
scalar OsgEarthNet.uav[48] utilizationSecMaintenance 393.73537294506
scalar OsgEarthNet.uav[48] utilizationSecCharge 3830
scalar OsgEarthNet.uav[48] utilizationSecIdle 7416.3502208215
scalar OsgEarthNet.uav[48] utilizationEnergyMission 4826.606547342
scalar OsgEarthNet.uav[48] utilizationEnergyMaintenance 1923.1525993347
scalar OsgEarthNet.uav[48] utilizationEnergyCharge 4990.9365234375
scalar OsgEarthNet.uav[48] utilizationEnergyOverdrawMission 0
scalar OsgEarthNet.uav[48] utilizationEnergyOverdrawMaintenance 0
scalar OsgEarthNet.uav[48] utilizationCountMissions 1
scalar OsgEarthNet.uav[48] utilizationCountManeuversMission 17
scalar OsgEarthNet.uav[48] utilizationCountManeuversMaintenance 3
scalar OsgEarthNet.uav[48] utilizationCountChargeState 1
scalar OsgEarthNet.uav[48] utilizationCountOverdrawnAfterMission 0
scalar OsgEarthNet.uav[48] utilizationCountIdleState 2
scalar OsgEarthNet.uav[48] utilizationFail 0
scalar OsgEarthNet.uav[48] simulationTime 12666.299129599
scalar OsgEarthNet.uav[49] utilizationSecMission 538.70011096482
scalar OsgEarthNet.uav[49] utilizationSecMaintenance 477.73889354078
scalar OsgEarthNet.uav[49] utilizationSecCharge 3830
scalar OsgEarthNet.uav[49] utilizationSecIdle 7819.8591250938
scalar OsgEarthNet.uav[49] utilizationEnergyMission 2676.9572601318
scalar OsgEarthNet.uav[49] utilizationEnergyMaintenance 2270.5812492371
scalar OsgEarthNet.uav[49] utilizationEnergyCharge 4947.5366210938
scalar OsgEarthNet.uav[49] utilizationEnergyOverdrawMission 0
scalar OsgEarthNet.uav[49] utilizationEnergyOverdrawMaintenance 0
scalar OsgEarthNet.uav[49] utilizationCountMissions 1
scalar OsgEarthNet.uav[49] utilizationCountManeuversMission 9
scalar OsgEarthNet.uav[49] utilizationCountManeuversMaintenance 2
scalar OsgEarthNet.uav[49] utilizationCountChargeState 1
scalar OsgEarthNet.uav[49] utilizationCountOverdrawnAfterMission 0
scalar OsgEarthNet.uav[49] utilizationCountIdleState 2
scalar OsgEarthNet.uav[49] utilizationFail 0
scalar OsgEarthNet.uav[49] simulationTime 12666.299129599
scalar OsgEarthNet.uav[50] utilizationSecMission 760.62515258028
scalar OsgEarthNet.uav[50] utilizationSecMaintenance 280.27216773088
scalar OsgEarthNet.uav[50] utilizationSecCharge 3720
scalar OsgEarthNet.uav[50] utilizationSecIdle 7905.4008092883
scalar OsgEarthNet.uav[50] utilizationEnergyMission 3614.8399276733
scalar OsgEarthNet.uav[50] utilizationEnergyMaintenance 1252.4041557312
scalar OsgEarthNet.uav[50] utilizationEnergyCharge 4836.08984375
scalar OsgEarthNet.uav[50] utilizationEnergyOverdrawMission 0
scalar OsgEarthNet.uav[50] utilizationEnergyOverdrawMaintenance 0
scalar OsgEarthNet.uav[50] utilizationCountMissions 1
scalar OsgEarthNet.uav[50] utilizationCountManeuversMission 12
scalar OsgEarthNet.uav[50] utilizationCountManeuversMaintenance 2
scalar OsgEarthNet.uav[50] utilizationCountChargeState 1
scalar OsgEarthNet.uav[50] utilizationCountOverdrawnAfterMission 0
scalar OsgEarthNet.uav[50] utilizationCountIdleState 2
scalar OsgEarthNet.uav[50] utilizationFail 0
scalar OsgEarthNet.uav[50] simulationTime 12666.299129599
scalar OsgEarthNet.uav[51] utilizationSecMission 744.942428628
scalar OsgEarthNet.uav[51] utilizationSecMaintenance 730.50717852466
scalar OsgEarthNet.uav[51] utilizationSecCharge 3840
scalar OsgEarthNet.uav[51] utilizationSecIdle 7350.8485224468
scalar OsgEarthNet.uav[51] utilizationEnergyMission 3986.8887374697
scalar OsgEarthNet.uav[51] utilizationEnergyMaintenance 3531.3969230652
scalar OsgEarthNet.uav[51] utilizationEnergyCharge 5044.3666992188
scalar OsgEarthNet.uav[51] utilizationEnergyOverdrawMission 0
scalar OsgEarthNet.uav[51] utilizationEnergyOverdrawMaintenance 0
scalar OsgEarthNet.uav[51] utilizationCountMissions 1
scalar OsgEarthNet.uav[51] utilizationCountManeuversMission 34
scalar OsgEarthNet.uav[51] utilizationCountManeuversMaintenance 3
scalar OsgEarthNet.uav[51] utilizationCountChargeState 1
scalar OsgEarthNet.uav[51] utilizationCountOverdrawnAfterMission 0
scalar OsgEarthNet.uav[51] utilizationCountIdleState 2
scalar OsgEarthNet.uav[51] utilizationFail 0
scalar OsgEarthNet.uav[51] simulationTime 12666.299129599
scalar OsgEarthNet.uav[52] utilizationSecMission 1328.189432934
scalar OsgEarthNet.uav[52] utilizationSecMaintenance 787.07057968781
scalar OsgEarthNet.uav[52] utilizationSecCharge 6756.3273647867
scalar OsgEarthNet.uav[52] utilizationSecIdle 3794.7107521909
scalar OsgEarthNet.uav[52] utilizationEnergyMission 6119.9581069946
scalar OsgEarthNet.uav[52] utilizationEnergyMaintenance 3603.361164093
scalar OsgEarthNet.uav[52] utilizationEnergyCharge 9549.7446289062
scalar OsgEarthNet.uav[52] utilizationEnergyOverdrawMission 0
scalar OsgEarthNet.uav[52] utilizationEnergyOverdrawMaintenance 0
scalar OsgEarthNet.uav[52] utilizationCountMissions 2
scalar OsgEarthNet.uav[52] utilizationCountManeuversMission 22
scalar OsgEarthNet.uav[52] utilizationCountManeuversMaintenance 4
scalar OsgEarthNet.uav[52] utilizationCountChargeState 2
scalar OsgEarthNet.uav[52] utilizationCountOverdrawnAfterMission 0
scalar OsgEarthNet.uav[52] utilizationCountIdleState 2
scalar OsgEarthNet.uav[52] utilizationFail 0
scalar OsgEarthNet.uav[52] simulationTime 12666.299129599
scalar OsgEarthNet.uav[53] utilizationSecMission 1210.7296825991
scalar OsgEarthNet.uav[53] utilizationSecMaintenance 776.01076988575
scalar OsgEarthNet.uav[53] utilizationSecCharge 3760
scalar OsgEarthNet.uav[53] utilizationSecIdle 6972.3983579561
scalar OsgEarthNet.uav[53] utilizationEnergyMission 6121.9599685669
scalar OsgEarthNet.uav[53] utilizationEnergyMaintenance 3578.5740470886
scalar OsgEarthNet.uav[53] utilizationEnergyCharge 4947.9140625
scalar OsgEarthNet.uav[53] utilizationEnergyOverdrawMission 0
scalar OsgEarthNet.uav[53] utilizationEnergyOverdrawMaintenance 0
scalar OsgEarthNet.uav[53] utilizationCountMissions 1
scalar OsgEarthNet.uav[53] utilizationCountManeuversMission 41
scalar OsgEarthNet.uav[53] utilizationCountManeuversMaintenance 3
scalar OsgEarthNet.uav[53] utilizationCountChargeState 1
scalar OsgEarthNet.uav[53] utilizationCountOverdrawnAfterMission 0
scalar OsgEarthNet.uav[53] utilizationCountIdleState 2
scalar OsgEarthNet.uav[53] utilizationFail 0
scalar OsgEarthNet.uav[53] simulationTime 12666.299129599
scalar OsgEarthNet.uav[54] utilizationSecMission 1320
scalar OsgEarthNet.uav[54] utilizationSecMaintenance 790.69889465529
scalar OsgEarthNet.uav[54] utilizationSecCharge 6133.5982349441
scalar OsgEarthNet.uav[54] utilizationSecIdle 4422.001
scalar OsgEarthNet.uav[54] utilizationEnergyMission 6386.5709762573
scalar OsgEarthNet.uav[54] utilizationEnergyMaintenance 3857.2340316772
scalar OsgEarthNet.uav[54] utilizationEnergyCharge 9078.3122558594
scalar OsgEarthNet.uav[54] utilizationEnergyOverdrawMission 0
scalar OsgEarthNet.uav[54] utilizationEnergyOverdrawMaintenance 0
scalar OsgEarthNet.uav[54] utilizationCountMissions 2
scalar OsgEarthNet.uav[54] utilizationCountManeuversMission 66
scalar OsgEarthNet.uav[54] utilizationCountManeuversMaintenance 4
scalar OsgEarthNet.uav[54] utilizationCountChargeState 2
scalar OsgEarthNet.uav[54] utilizationCountOverdrawnAfterMission 0
scalar OsgEarthNet.uav[54] utilizationCountIdleState 2
scalar OsgEarthNet.uav[54] utilizationFail 0
scalar OsgEarthNet.uav[54] simulationTime 12666.299129599
scalar OsgEarthNet.uav[55] utilizationSecMission 1250.2047274783
scalar OsgEarthNet.uav[55] utilizationSecMaintenance 873.96212257391
scalar OsgEarthNet.uav[55] utilizationSecCharge 4132.5002038092
scalar OsgEarthNet.uav[55] utilizationSecIdle 6409.631075738
scalar OsgEarthNet.uav[55] utilizationEnergyMission 5757.9077606201
scalar OsgEarthNet.uav[55] utilizationEnergyMaintenance 4140.5808410644
scalar OsgEarthNet.uav[55] utilizationEnergyCharge 5554.2037353516
scalar OsgEarthNet.uav[55] utilizationEnergyOverdrawMission 0
scalar OsgEarthNet.uav[55] utilizationEnergyOverdrawMaintenance 287.09381103516
scalar OsgEarthNet.uav[55] utilizationCountMissions 2
scalar OsgEarthNet.uav[55] utilizationCountManeuversMission 36
scalar OsgEarthNet.uav[55] utilizationCountManeuversMaintenance 4
scalar OsgEarthNet.uav[55] utilizationCountChargeState 2
scalar OsgEarthNet.uav[55] utilizationCountOverdrawnAfterMission 1
scalar OsgEarthNet.uav[55] utilizationCountIdleState 2
scalar OsgEarthNet.uav[55] utilizationFail 0
scalar OsgEarthNet.uav[55] simulationTime 12666.299129599
scalar OsgEarthNet.uav[56] utilizationSecMission 1079.6301255109
scalar OsgEarthNet.uav[56] utilizationSecMaintenance 495.71474842375
scalar OsgEarthNet.uav[56] utilizationSecCharge 3880
scalar OsgEarthNet.uav[56] utilizationSecIdle 7210.9532556647
scalar OsgEarthNet.uav[56] utilizationEnergyMission 5336.6879133142
scalar OsgEarthNet.uav[56] utilizationEnergyMaintenance 2169.2809677124
scalar OsgEarthNet.uav[56] utilizationEnergyCharge 5094.3525390625
scalar OsgEarthNet.uav[56] utilizationEnergyOverdrawMission 0
scalar OsgEarthNet.uav[56] utilizationEnergyOverdrawMaintenance 0
scalar OsgEarthNet.uav[56] utilizationCountMissions 1
scalar OsgEarthNet.uav[56] utilizationCountManeuversMission 38
scalar OsgEarthNet.uav[56] utilizationCountManeuversMaintenance 3
scalar OsgEarthNet.uav[56] utilizationCountChargeState 1
scalar OsgEarthNet.uav[56] utilizationCountOverdrawnAfterMission 0
scalar OsgEarthNet.uav[56] utilizationCountIdleState 2
scalar OsgEarthNet.uav[56] utilizationFail 0
scalar OsgEarthNet.uav[56] simulationTime 12666.299129599
scalar OsgEarthNet.uav[57] utilizationSecMission 1060
scalar OsgEarthNet.uav[57] utilizationSecMaintenance 1033.6960988427
scalar OsgEarthNet.uav[57] utilizationSecCharge 5021.75750831
scalar OsgEarthNet.uav[57] utilizationSecIdle 5550.8445224468
scalar OsgEarthNet.uav[57] utilizationEnergyMission 5293.7132530212
scalar OsgEarthNet.uav[57] utilizationEnergyMaintenance 4981.6059417725
scalar OsgEarthNet.uav[57] utilizationEnergyCharge 7124.462890625
scalar OsgEarthNet.uav[57] utilizationEnergyOverdrawMission 0
scalar OsgEarthNet.uav[57] utilizationEnergyOverdrawMaintenance 288.34102630615
scalar OsgEarthNet.uav[57] utilizationCountMissions 2
scalar OsgEarthNet.uav[57] utilizationCountManeuversMission 53
scalar OsgEarthNet.uav[57] utilizationCountManeuversMaintenance 4
scalar OsgEarthNet.uav[57] utilizationCountChargeState 2
scalar OsgEarthNet.uav[57] utilizationCountOverdrawnAfterMission 2
scalar OsgEarthNet.uav[57] utilizationCountIdleState 2
scalar OsgEarthNet.uav[57] utilizationFail 0
scalar OsgEarthNet.uav[57] simulationTime 12666.299129599
scalar OsgEarthNet.uav[58] utilizationSecMission 1340
scalar OsgEarthNet.uav[58] utilizationSecMaintenance 733.56010818128
scalar OsgEarthNet.uav[58] utilizationSecCharge 7870
scalar OsgEarthNet.uav[58] utilizationSecIdle 2722.7380214181
scalar OsgEarthNet.uav[58] utilizationEnergyMission 6843.3103485107
scalar OsgEarthNet.uav[58] utilizationEnergyMaintenance 3517.6284103394
scalar OsgEarthNet.uav[58] utilizationEnergyCharge 10399.004882812
scalar OsgEarthNet.uav[58] utilizationEnergyOverdrawMission 0
scalar OsgEarthNet.uav[58] utilizationEnergyOverdrawMaintenance 362.05868530273
scalar OsgEarthNet.uav[58] utilizationCountMissions 2
scalar OsgEarthNet.uav[58] utilizationCountManeuversMission 67
scalar OsgEarthNet.uav[58] utilizationCountManeuversMaintenance 4
scalar OsgEarthNet.uav[58] utilizationCountChargeState 2
scalar OsgEarthNet.uav[58] utilizationCountOverdrawnAfterMission 1
scalar OsgEarthNet.uav[58] utilizationCountIdleState 3
scalar OsgEarthNet.uav[58] utilizationFail 0
scalar OsgEarthNet.uav[58] simulationTime 12666.299129599
scalar OsgEarthNet.uav[59] utilizationSecMission 1823.3119055188
scalar OsgEarthNet.uav[59] utilizationSecMaintenance 398.82587993685
scalar OsgEarthNet.uav[59] utilizationSecCharge 7432.1603441438
scalar OsgEarthNet.uav[59] utilizationSecIdle 3012
scalar OsgEarthNet.uav[59] utilizationEnergyMission 7946.4810446391
scalar OsgEarthNet.uav[59] utilizationEnergyMaintenance 1916.0854721069
scalar OsgEarthNet.uav[59] utilizationEnergyCharge 10272.749023438
scalar OsgEarthNet.uav[59] utilizationEnergyOverdrawMission 0
scalar OsgEarthNet.uav[59] utilizationEnergyOverdrawMaintenance 0
scalar OsgEarthNet.uav[59] utilizationCountMissions 2
scalar OsgEarthNet.uav[59] utilizationCountManeuversMission 26
scalar OsgEarthNet.uav[59] utilizationCountManeuversMaintenance 3
scalar OsgEarthNet.uav[59] utilizationCountChargeState 2
scalar OsgEarthNet.uav[59] utilizationCountOverdrawnAfterMission 0
scalar OsgEarthNet.uav[59] utilizationCountIdleState 2
scalar OsgEarthNet.uav[59] utilizationFail 0
scalar OsgEarthNet.uav[59] simulationTime 12666.299129599
scalar OsgEarthNet.uav[60] utilizationSecMission 1383.621208986
scalar OsgEarthNet.uav[60] utilizationSecMaintenance 620.24974366596
scalar OsgEarthNet.uav[60] utilizationSecCharge 3949.3531383275
scalar OsgEarthNet.uav[60] utilizationSecIdle 6713.07403862
scalar OsgEarthNet.uav[60] utilizationEnergyMission 6407.5988235474
scalar OsgEarthNet.uav[60] utilizationEnergyMaintenance 2953.3240203857
scalar OsgEarthNet.uav[60] utilizationEnergyCharge 5283.0500488281
scalar OsgEarthNet.uav[60] utilizationEnergyOverdrawMission 0
scalar OsgEarthNet.uav[60] utilizationEnergyOverdrawMaintenance 0
scalar OsgEarthNet.uav[60] utilizationCountMissions 2
scalar OsgEarthNet.uav[60] utilizationCountManeuversMission 21
scalar OsgEarthNet.uav[60] utilizationCountManeuversMaintenance 4
scalar OsgEarthNet.uav[60] utilizationCountChargeState 2
scalar OsgEarthNet.uav[60] utilizationCountOverdrawnAfterMission 0
scalar OsgEarthNet.uav[60] utilizationCountIdleState 2
scalar OsgEarthNet.uav[60] utilizationFail 0
scalar OsgEarthNet.uav[60] simulationTime 12666.299129599
scalar OsgEarthNet.uav[61] utilizationSecMission 1340
scalar OsgEarthNet.uav[61] utilizationSecMaintenance 830.69889465529
scalar OsgEarthNet.uav[61] utilizationSecCharge 4194.7517124974
scalar OsgEarthNet.uav[61] utilizationSecIdle 6300.8475224468
scalar OsgEarthNet.uav[61] utilizationEnergyMission 6817.6433830261
scalar OsgEarthNet.uav[61] utilizationEnergyMaintenance 3833.9473342896
scalar OsgEarthNet.uav[61] utilizationEnergyCharge 5714.1768798828
scalar OsgEarthNet.uav[61] utilizationEnergyOverdrawMission 0
scalar OsgEarthNet.uav[61] utilizationEnergyOverdrawMaintenance 163.70246124268
scalar OsgEarthNet.uav[61] utilizationCountMissions 2
scalar OsgEarthNet.uav[61] utilizationCountManeuversMission 67
scalar OsgEarthNet.uav[61] utilizationCountManeuversMaintenance 4
scalar OsgEarthNet.uav[61] utilizationCountChargeState 2
scalar OsgEarthNet.uav[61] utilizationCountOverdrawnAfterMission 2
scalar OsgEarthNet.uav[61] utilizationCountIdleState 2
scalar OsgEarthNet.uav[61] utilizationFail 0
scalar OsgEarthNet.uav[61] simulationTime 12666.299129599
scalar OsgEarthNet.uav[62] utilizationSecMission 1240
scalar OsgEarthNet.uav[62] utilizationSecMaintenance 877.61029928554
scalar OsgEarthNet.uav[62] utilizationSecCharge 5498.7746877673
scalar OsgEarthNet.uav[62] utilizationSecIdle 5049.9131425466
scalar OsgEarthNet.uav[62] utilizationEnergyMission 6086.8561973572
scalar OsgEarthNet.uav[62] utilizationEnergyMaintenance 3952.9135971069
scalar OsgEarthNet.uav[62] utilizationEnergyCharge 7929.5712890625
scalar OsgEarthNet.uav[62] utilizationEnergyOverdrawMission 0
scalar OsgEarthNet.uav[62] utilizationEnergyOverdrawMaintenance 0
scalar OsgEarthNet.uav[62] utilizationCountMissions 2
scalar OsgEarthNet.uav[62] utilizationCountManeuversMission 62
scalar OsgEarthNet.uav[62] utilizationCountManeuversMaintenance 4
scalar OsgEarthNet.uav[62] utilizationCountChargeState 2
scalar OsgEarthNet.uav[62] utilizationCountOverdrawnAfterMission 0
scalar OsgEarthNet.uav[62] utilizationCountIdleState 2
scalar OsgEarthNet.uav[62] utilizationFail 0
scalar OsgEarthNet.uav[62] simulationTime 12666.299129599
scalar OsgEarthNet.uav[63] utilizationSecMission 1100
scalar OsgEarthNet.uav[63] utilizationSecMaintenance 783.89377164331
scalar OsgEarthNet.uav[63] utilizationSecCharge 3870
scalar OsgEarthNet.uav[63] utilizationSecIdle 6912.4043579561
scalar OsgEarthNet.uav[63] utilizationEnergyMission 5553.8214912415
scalar OsgEarthNet.uav[63] utilizationEnergyMaintenance 3872.7475690426
scalar OsgEarthNet.uav[63] utilizationEnergyCharge 5066.2900390625
scalar OsgEarthNet.uav[63] utilizationEnergyOverdrawMission 0
scalar OsgEarthNet.uav[63] utilizationEnergyOverdrawMaintenance 0
scalar OsgEarthNet.uav[63] utilizationCountMissions 2
scalar OsgEarthNet.uav[63] utilizationCountManeuversMission 55
scalar OsgEarthNet.uav[63] utilizationCountManeuversMaintenance 4
scalar OsgEarthNet.uav[63] utilizationCountChargeState 1
scalar OsgEarthNet.uav[63] utilizationCountOverdrawnAfterMission 0
scalar OsgEarthNet.uav[63] utilizationCountIdleState 2
scalar OsgEarthNet.uav[63] utilizationFail 0
scalar OsgEarthNet.uav[63] simulationTime 12666.299129599
scalar OsgEarthNet.uav[64] utilizationSecMission 1472.7895023184
scalar OsgEarthNet.uav[64] utilizationSecMaintenance 776.20559497541
scalar OsgEarthNet.uav[64] utilizationSecCharge 4668.951428105
scalar OsgEarthNet.uav[64] utilizationSecIdle 5748.3516042006
scalar OsgEarthNet.uav[64] utilizationEnergyMission 6782.9923400879
scalar OsgEarthNet.uav[64] utilizationEnergyMaintenance 3729.0414810181
scalar OsgEarthNet.uav[64] utilizationEnergyCharge 6449.8291015625
scalar OsgEarthNet.uav[64] utilizationEnergyOverdrawMission 0
scalar OsgEarthNet.uav[64] utilizationEnergyOverdrawMaintenance 524.37103271484
scalar OsgEarthNet.uav[64] utilizationCountMissions 2
scalar OsgEarthNet.uav[64] utilizationCountManeuversMission 27
scalar OsgEarthNet.uav[64] utilizationCountManeuversMaintenance 4
scalar OsgEarthNet.uav[64] utilizationCountChargeState 2
scalar OsgEarthNet.uav[64] utilizationCountOverdrawnAfterMission 1
scalar OsgEarthNet.uav[64] utilizationCountIdleState 2
scalar OsgEarthNet.uav[64] utilizationFail 0
scalar OsgEarthNet.uav[64] simulationTime 12666.299129599
scalar OsgEarthNet.uav[65] utilizationSecMission 1344.2116464188
scalar OsgEarthNet.uav[65] utilizationSecMaintenance 871.21212536376
scalar OsgEarthNet.uav[65] utilizationSecCharge 4658.8693578169
scalar OsgEarthNet.uav[65] utilizationSecIdle 5792.005
scalar OsgEarthNet.uav[65] utilizationEnergyMission 6385.9363899231
scalar OsgEarthNet.uav[65] utilizationEnergyMaintenance 3759.4410324097
scalar OsgEarthNet.uav[65] utilizationEnergyCharge 6561.5667724609
scalar OsgEarthNet.uav[65] utilizationEnergyOverdrawMission 0
scalar OsgEarthNet.uav[65] utilizationEnergyOverdrawMaintenance 13.406683921814
scalar OsgEarthNet.uav[65] utilizationCountMissions 2
[...]
scalar OsgEarthNet.uav[81] utilizationCountManeuversMaintenance 4
scalar OsgEarthNet.uav[81] utilizationCountChargeState 2
scalar OsgEarthNet.uav[81] utilizationCountOverdrawnAfterMission 0
scalar OsgEarthNet.uav[81] utilizationCountIdleState 2
scalar OsgEarthNet.uav[81] utilizationFail 0
scalar OsgEarthNet.uav[81] simulationTime 12666.299129599
scalar OsgEarthNet.uav[82] utilizationSecMission 2168.0237273054
scalar OsgEarthNet.uav[82] utilizationSecMaintenance 976.274402294
scalar OsgEarthNet.uav[82] utilizationSecCharge 7610
scalar OsgEarthNet.uav[82] utilizationSecIdle 1912
scalar OsgEarthNet.uav[82] utilizationEnergyMission 10394.758657041
scalar OsgEarthNet.uav[82] utilizationEnergyMaintenance 4442.2727095039
scalar OsgEarthNet.uav[82] utilizationEnergyCharge 9973.6455078125
scalar OsgEarthNet.uav[82] utilizationEnergyOverdrawMission 0
scalar OsgEarthNet.uav[82] utilizationEnergyOverdrawMaintenance 0
scalar OsgEarthNet.uav[82] utilizationCountMissions 3
scalar OsgEarthNet.uav[82] utilizationCountManeuversMission 75
scalar OsgEarthNet.uav[82] utilizationCountManeuversMaintenance 5
scalar OsgEarthNet.uav[82] utilizationCountChargeState 2
scalar OsgEarthNet.uav[82] utilizationCountOverdrawnAfterMission 0
scalar OsgEarthNet.uav[82] utilizationCountIdleState 2
scalar OsgEarthNet.uav[82] utilizationFail 0
scalar OsgEarthNet.uav[82] simulationTime 12666.299129599
scalar OsgEarthNet.uav[83] utilizationSecMission 1390.2047274783
scalar OsgEarthNet.uav[83] utilizationSecMaintenance 802.59578184913
scalar OsgEarthNet.uav[83] utilizationSecCharge 4841.0952623159
scalar OsgEarthNet.uav[83] utilizationSecIdle 5632.4023579561
scalar OsgEarthNet.uav[83] utilizationEnergyMission 6616.1081428528
scalar OsgEarthNet.uav[83] utilizationEnergyMaintenance 3714.1727523804
scalar OsgEarthNet.uav[83] utilizationEnergyCharge 6900.2850341797
scalar OsgEarthNet.uav[83] utilizationEnergyOverdrawMission 0
scalar OsgEarthNet.uav[83] utilizationEnergyOverdrawMaintenance 105.28369903564
scalar OsgEarthNet.uav[83] utilizationCountMissions 2
scalar OsgEarthNet.uav[83] utilizationCountManeuversMission 43
scalar OsgEarthNet.uav[83] utilizationCountManeuversMaintenance 4
scalar OsgEarthNet.uav[83] utilizationCountChargeState 2
scalar OsgEarthNet.uav[83] utilizationCountOverdrawnAfterMission 1
scalar OsgEarthNet.uav[83] utilizationCountIdleState 2
scalar OsgEarthNet.uav[83] utilizationFail 0
scalar OsgEarthNet.uav[83] simulationTime 12666.299129599
scalar OsgEarthNet.uav[84] utilizationSecMission 1200
scalar OsgEarthNet.uav[84] utilizationSecMaintenance 967.95704155868
scalar OsgEarthNet.uav[84] utilizationSecCharge 4232.5976604009
scalar OsgEarthNet.uav[84] utilizationSecIdle 6265.7434276398
scalar OsgEarthNet.uav[84] utilizationEnergyMission 6286.5960655212
scalar OsgEarthNet.uav[84] utilizationEnergyMaintenance 4825.8475761414
scalar OsgEarthNet.uav[84] utilizationEnergyCharge 5796.7506103516
scalar OsgEarthNet.uav[84] utilizationEnergyOverdrawMission 0
scalar OsgEarthNet.uav[84] utilizationEnergyOverdrawMaintenance 429.63316345215
scalar OsgEarthNet.uav[84] utilizationCountMissions 2
scalar OsgEarthNet.uav[84] utilizationCountManeuversMission 60
scalar OsgEarthNet.uav[84] utilizationCountManeuversMaintenance 4
scalar OsgEarthNet.uav[84] utilizationCountChargeState 2
scalar OsgEarthNet.uav[84] utilizationCountOverdrawnAfterMission 2
scalar OsgEarthNet.uav[84] utilizationCountIdleState 2
scalar OsgEarthNet.uav[84] utilizationFail 0
scalar OsgEarthNet.uav[84] simulationTime 12666.299129599
scalar OsgEarthNet.uav[85] utilizationSecMission 1440
scalar OsgEarthNet.uav[85] utilizationSecMaintenance 653.6155799585
scalar OsgEarthNet.uav[85] utilizationSecCharge 6820.6795496409
scalar OsgEarthNet.uav[85] utilizationSecIdle 3752.003
scalar OsgEarthNet.uav[85] utilizationEnergyMission 6957.301902771
scalar OsgEarthNet.uav[85] utilizationEnergyMaintenance 3040.0418930054
scalar OsgEarthNet.uav[85] utilizationEnergyCharge 10029.211425781
scalar OsgEarthNet.uav[85] utilizationEnergyOverdrawMission 0
scalar OsgEarthNet.uav[85] utilizationEnergyOverdrawMaintenance 34.583766937256
scalar OsgEarthNet.uav[85] utilizationCountMissions 2
scalar OsgEarthNet.uav[85] utilizationCountManeuversMission 72
scalar OsgEarthNet.uav[85] utilizationCountManeuversMaintenance 4
scalar OsgEarthNet.uav[85] utilizationCountChargeState 2
scalar OsgEarthNet.uav[85] utilizationCountOverdrawnAfterMission 1
scalar OsgEarthNet.uav[85] utilizationCountIdleState 2
scalar OsgEarthNet.uav[85] utilizationFail 0
scalar OsgEarthNet.uav[85] simulationTime 12666.299129599
scalar OsgEarthNet.uav[86] utilizationSecMission 671.19640736204
scalar OsgEarthNet.uav[86] utilizationSecMaintenance 672.69636428127
scalar OsgEarthNet.uav[86] utilizationSecCharge 3810
scalar OsgEarthNet.uav[86] utilizationSecIdle 7512.4053579561
scalar OsgEarthNet.uav[86] utilizationEnergyMission 3153.7976490301
scalar OsgEarthNet.uav[86] utilizationEnergyMaintenance 3154.5135002136
scalar OsgEarthNet.uav[86] utilizationEnergyCharge 4973.7124023438
scalar OsgEarthNet.uav[86] utilizationEnergyOverdrawMission 0
scalar OsgEarthNet.uav[86] utilizationEnergyOverdrawMaintenance 0
scalar OsgEarthNet.uav[86] utilizationCountMissions 1
scalar OsgEarthNet.uav[86] utilizationCountManeuversMission 34
scalar OsgEarthNet.uav[86] utilizationCountManeuversMaintenance 3
scalar OsgEarthNet.uav[86] utilizationCountChargeState 1
scalar OsgEarthNet.uav[86] utilizationCountOverdrawnAfterMission 0
scalar OsgEarthNet.uav[86] utilizationCountIdleState 2
scalar OsgEarthNet.uav[86] utilizationFail 0
scalar OsgEarthNet.uav[86] simulationTime 12666.299129599
scalar OsgEarthNet.uav[87] utilizationSecMission 1320
scalar OsgEarthNet.uav[87] utilizationSecMaintenance 830.69889465529
scalar OsgEarthNet.uav[87] utilizationSecCharge 6814.7557124974
scalar OsgEarthNet.uav[87] utilizationSecIdle 3700.8435224468
scalar OsgEarthNet.uav[87] utilizationEnergyMission 6795.407623291
scalar OsgEarthNet.uav[87] utilizationEnergyMaintenance 3985.5467605591
scalar OsgEarthNet.uav[87] utilizationEnergyCharge 10078.427734375
scalar OsgEarthNet.uav[87] utilizationEnergyOverdrawMission 0
scalar OsgEarthNet.uav[87] utilizationEnergyOverdrawMaintenance 188.94894146919
scalar OsgEarthNet.uav[87] utilizationCountMissions 2
scalar OsgEarthNet.uav[87] utilizationCountManeuversMission 66
scalar OsgEarthNet.uav[87] utilizationCountManeuversMaintenance 4
scalar OsgEarthNet.uav[87] utilizationCountChargeState 2
scalar OsgEarthNet.uav[87] utilizationCountOverdrawnAfterMission 2
scalar OsgEarthNet.uav[87] utilizationCountIdleState 2
scalar OsgEarthNet.uav[87] utilizationFail 0
scalar OsgEarthNet.uav[87] simulationTime 12666.299129599
scalar OsgEarthNet.uav[88] utilizationSecMission 1260
scalar OsgEarthNet.uav[88] utilizationSecMaintenance 801.39413024964
scalar OsgEarthNet.uav[88] utilizationSecCharge 7524.9888568032
scalar OsgEarthNet.uav[88] utilizationSecIdle 3079.9151425466
scalar OsgEarthNet.uav[88] utilizationEnergyMission 6558.9614067078
scalar OsgEarthNet.uav[88] utilizationEnergyMaintenance 3859.1165008545
scalar OsgEarthNet.uav[88] utilizationEnergyCharge 10232.853515625
scalar OsgEarthNet.uav[88] utilizationEnergyOverdrawMission 0
scalar OsgEarthNet.uav[88] utilizationEnergyOverdrawMaintenance 109.20379638672
scalar OsgEarthNet.uav[88] utilizationCountMissions 2
scalar OsgEarthNet.uav[88] utilizationCountManeuversMission 63
scalar OsgEarthNet.uav[88] utilizationCountManeuversMaintenance 4
scalar OsgEarthNet.uav[88] utilizationCountChargeState 2
scalar OsgEarthNet.uav[88] utilizationCountOverdrawnAfterMission 1
scalar OsgEarthNet.uav[88] utilizationCountIdleState 2
scalar OsgEarthNet.uav[88] utilizationFail 0
scalar OsgEarthNet.uav[88] simulationTime 12666.299129599
scalar OsgEarthNet.uav[89] utilizationSecMission 1371.0023994263
scalar OsgEarthNet.uav[89] utilizationSecMaintenance 804.69136024506
scalar OsgEarthNet.uav[89] utilizationSecCharge 5189.6531142633
scalar OsgEarthNet.uav[89] utilizationSecIdle 5300.9512556647
scalar OsgEarthNet.uav[89] utilizationEnergyMission 6640.6789741516
scalar OsgEarthNet.uav[89] utilizationEnergyMaintenance 3869.0082626343
scalar OsgEarthNet.uav[89] utilizationEnergyCharge 7483.1945800781
scalar OsgEarthNet.uav[89] utilizationEnergyOverdrawMission 0
scalar OsgEarthNet.uav[89] utilizationEnergyOverdrawMaintenance 0
scalar OsgEarthNet.uav[89] utilizationCountMissions 2
scalar OsgEarthNet.uav[89] utilizationCountManeuversMission 48
scalar OsgEarthNet.uav[89] utilizationCountManeuversMaintenance 4
scalar OsgEarthNet.uav[89] utilizationCountChargeState 2
scalar OsgEarthNet.uav[89] utilizationCountOverdrawnAfterMission 0
scalar OsgEarthNet.uav[89] utilizationCountIdleState 2
scalar OsgEarthNet.uav[89] utilizationFail 0
scalar OsgEarthNet.uav[89] simulationTime 12666.299129599
scalar OsgEarthNet.uav[90] utilizationSecMission 1243.2697813357
scalar OsgEarthNet.uav[90] utilizationSecMaintenance 860.59960598628
scalar OsgEarthNet.uav[90] utilizationSecCharge 5560.0273843213
scalar OsgEarthNet.uav[90] utilizationSecIdle 5002.4013579561
scalar OsgEarthNet.uav[90] utilizationEnergyMission 5740.806312561
scalar OsgEarthNet.uav[90] utilizationEnergyMaintenance 4020.303062439
scalar OsgEarthNet.uav[90] utilizationEnergyCharge 8144.8342285156
scalar OsgEarthNet.uav[90] utilizationEnergyOverdrawMission 0
scalar OsgEarthNet.uav[90] utilizationEnergyOverdrawMaintenance 0
scalar OsgEarthNet.uav[90] utilizationCountMissions 2
scalar OsgEarthNet.uav[90] utilizationCountManeuversMission 39
scalar OsgEarthNet.uav[90] utilizationCountManeuversMaintenance 4
scalar OsgEarthNet.uav[90] utilizationCountChargeState 2
scalar OsgEarthNet.uav[90] utilizationCountOverdrawnAfterMission 0
scalar OsgEarthNet.uav[90] utilizationCountIdleState 2
scalar OsgEarthNet.uav[90] utilizationFail 0
scalar OsgEarthNet.uav[90] simulationTime 12666.299129599
scalar OsgEarthNet.uav[91] utilizationSecMission 700
scalar OsgEarthNet.uav[91] utilizationSecMaintenance 395.21104267299
scalar OsgEarthNet.uav[91] utilizationSecCharge 3580.2365644797
scalar OsgEarthNet.uav[91] utilizationSecIdle 7990.8505224468
scalar OsgEarthNet.uav[91] utilizationEnergyMission 3743.4315986633
scalar OsgEarthNet.uav[91] utilizationEnergyMaintenance 1770.0473747253
scalar OsgEarthNet.uav[91] utilizationEnergyCharge 5153.1928710938
scalar OsgEarthNet.uav[91] utilizationEnergyOverdrawMission 0
scalar OsgEarthNet.uav[91] utilizationEnergyOverdrawMaintenance 0
scalar OsgEarthNet.uav[91] utilizationCountMissions 1
scalar OsgEarthNet.uav[91] utilizationCountManeuversMission 35
scalar OsgEarthNet.uav[91] utilizationCountManeuversMaintenance 2
scalar OsgEarthNet.uav[91] utilizationCountChargeState 1
scalar OsgEarthNet.uav[91] utilizationCountOverdrawnAfterMission 0
scalar OsgEarthNet.uav[91] utilizationCountIdleState 1
scalar OsgEarthNet.uav[91] utilizationFail 0
scalar OsgEarthNet.uav[91] simulationTime 12666.299129599
scalar OsgEarthNet.uav[92] utilizationSecMission 1444.206422178
scalar OsgEarthNet.uav[92] utilizationSecMaintenance 594.18218760203
scalar OsgEarthNet.uav[92] utilizationSecCharge 7175.2068521018
scalar OsgEarthNet.uav[92] utilizationSecIdle 3452.7026677176
scalar OsgEarthNet.uav[92] utilizationEnergyMission 7039.82762146
scalar OsgEarthNet.uav[92] utilizationEnergyMaintenance 2490.4905014038
scalar OsgEarthNet.uav[92] utilizationEnergyCharge 9498.78515625
scalar OsgEarthNet.uav[92] utilizationEnergyOverdrawMission 0
scalar OsgEarthNet.uav[92] utilizationEnergyOverdrawMaintenance 0
scalar OsgEarthNet.uav[92] utilizationCountMissions 2
scalar OsgEarthNet.uav[92] utilizationCountManeuversMission 24
scalar OsgEarthNet.uav[92] utilizationCountManeuversMaintenance 4
scalar OsgEarthNet.uav[92] utilizationCountChargeState 2
scalar OsgEarthNet.uav[92] utilizationCountOverdrawnAfterMission 0
scalar OsgEarthNet.uav[92] utilizationCountIdleState 2
scalar OsgEarthNet.uav[92] utilizationFail 0
scalar OsgEarthNet.uav[92] simulationTime 12666.299129599
scalar OsgEarthNet.uav[93] utilizationSecMission 943.42758571737
scalar OsgEarthNet.uav[93] utilizationSecMaintenance 1250.8685438821
scalar OsgEarthNet.uav[93] utilizationSecCharge 7500
scalar OsgEarthNet.uav[93] utilizationSecIdle 2972.002
scalar OsgEarthNet.uav[93] utilizationEnergyMission 4758.0347718061
scalar OsgEarthNet.uav[93] utilizationEnergyMaintenance 5852.294883728
scalar OsgEarthNet.uav[93] utilizationEnergyCharge 9755.0922851562
scalar OsgEarthNet.uav[93] utilizationEnergyOverdrawMission 0
scalar OsgEarthNet.uav[93] utilizationEnergyOverdrawMaintenance 0
scalar OsgEarthNet.uav[93] utilizationCountMissions 2
scalar OsgEarthNet.uav[93] utilizationCountManeuversMission 39
scalar OsgEarthNet.uav[93] utilizationCountManeuversMaintenance 5
scalar OsgEarthNet.uav[93] utilizationCountChargeState 2
scalar OsgEarthNet.uav[93] utilizationCountOverdrawnAfterMission 0
scalar OsgEarthNet.uav[93] utilizationCountIdleState 3
scalar OsgEarthNet.uav[93] utilizationFail 0
scalar OsgEarthNet.uav[93] simulationTime 12666.299129599
scalar OsgEarthNet.uav[94] utilizationSecMission 1100
scalar OsgEarthNet.uav[94] utilizationSecMaintenance 1053.6960988427
scalar OsgEarthNet.uav[94] utilizationSecCharge 5161.75550831
scalar OsgEarthNet.uav[94] utilizationSecIdle 5350.8465224468
scalar OsgEarthNet.uav[94] utilizationEnergyMission 5357.7353591919
scalar OsgEarthNet.uav[94] utilizationEnergyMaintenance 4887.2263870239
scalar OsgEarthNet.uav[94] utilizationEnergyCharge 7704.7114257812
scalar OsgEarthNet.uav[94] utilizationEnergyOverdrawMission 0
scalar OsgEarthNet.uav[94] utilizationEnergyOverdrawMaintenance 76.378089904785
scalar OsgEarthNet.uav[94] utilizationCountMissions 2
scalar OsgEarthNet.uav[94] utilizationCountManeuversMission 55
scalar OsgEarthNet.uav[94] utilizationCountManeuversMaintenance 4
scalar OsgEarthNet.uav[94] utilizationCountChargeState 2
scalar OsgEarthNet.uav[94] utilizationCountOverdrawnAfterMission 1
scalar OsgEarthNet.uav[94] utilizationCountIdleState 1
scalar OsgEarthNet.uav[94] utilizationFail 0
scalar OsgEarthNet.uav[94] simulationTime 12666.299129599
scalar OsgEarthNet.uav[95] utilizationSecMission 1581.1758029604
scalar OsgEarthNet.uav[95] utilizationSecMaintenance 635.94736077191
scalar OsgEarthNet.uav[95] utilizationSecCharge 6011.2994158943
scalar OsgEarthNet.uav[95] utilizationSecIdle 4437.8755499729
scalar OsgEarthNet.uav[95] utilizationEnergyMission 7570.0239639282
scalar OsgEarthNet.uav[95] utilizationEnergyMaintenance 3047.0242538452
scalar OsgEarthNet.uav[95] utilizationEnergyCharge 8930.9604492188
scalar OsgEarthNet.uav[95] utilizationEnergyOverdrawMission 0
scalar OsgEarthNet.uav[95] utilizationEnergyOverdrawMaintenance 92.632308959961
scalar OsgEarthNet.uav[95] utilizationCountMissions 2
scalar OsgEarthNet.uav[95] utilizationCountManeuversMission 27
scalar OsgEarthNet.uav[95] utilizationCountManeuversMaintenance 4
scalar OsgEarthNet.uav[95] utilizationCountChargeState 2
scalar OsgEarthNet.uav[95] utilizationCountOverdrawnAfterMission 1
scalar OsgEarthNet.uav[95] utilizationCountIdleState 1
scalar OsgEarthNet.uav[95] utilizationFail 0
scalar OsgEarthNet.uav[95] simulationTime 12666.299129599
scalar OsgEarthNet.uav[96] utilizationSecMission 1400.6251525803
scalar OsgEarthNet.uav[96] utilizationSecMaintenance 727.70389458055
scalar OsgEarthNet.uav[96] utilizationSecCharge 7368.65196895
scalar OsgEarthNet.uav[96] utilizationSecIdle 3169.3171134886
scalar OsgEarthNet.uav[96] utilizationEnergyMission 7054.9217224121
scalar OsgEarthNet.uav[96] utilizationEnergyMaintenance 3414.3276596069
scalar OsgEarthNet.uav[96] utilizationEnergyCharge 9852.2412109375
scalar OsgEarthNet.uav[96] utilizationEnergyOverdrawMission 0
scalar OsgEarthNet.uav[96] utilizationEnergyOverdrawMaintenance 0
scalar OsgEarthNet.uav[96] utilizationCountMissions 2
scalar OsgEarthNet.uav[96] utilizationCountManeuversMission 44
scalar OsgEarthNet.uav[96] utilizationCountManeuversMaintenance 4
scalar OsgEarthNet.uav[96] utilizationCountChargeState 2
scalar OsgEarthNet.uav[96] utilizationCountOverdrawnAfterMission 0
scalar OsgEarthNet.uav[96] utilizationCountIdleState 2
scalar OsgEarthNet.uav[96] utilizationFail 0
scalar OsgEarthNet.uav[96] simulationTime 12666.299129599
scalar OsgEarthNet.uav[97] utilizationSecMission 1476.3340371011
scalar OsgEarthNet.uav[97] utilizationSecMaintenance 668.26175726606
scalar OsgEarthNet.uav[97] utilizationSecCharge 7549.7023352323
scalar OsgEarthNet.uav[97] utilizationSecIdle 2972
scalar OsgEarthNet.uav[97] utilizationEnergyMission 7383.3188995555
scalar OsgEarthNet.uav[97] utilizationEnergyMaintenance 2878.7122268677
scalar OsgEarthNet.uav[97] utilizationEnergyCharge 10268.812988281
scalar OsgEarthNet.uav[97] utilizationEnergyOverdrawMission 0
scalar OsgEarthNet.uav[97] utilizationEnergyOverdrawMaintenance 84.851020812988
scalar OsgEarthNet.uav[97] utilizationCountMissions 2
scalar OsgEarthNet.uav[97] utilizationCountManeuversMission 41
scalar OsgEarthNet.uav[97] utilizationCountManeuversMaintenance 3
scalar OsgEarthNet.uav[97] utilizationCountChargeState 2
scalar OsgEarthNet.uav[97] utilizationCountOverdrawnAfterMission 1
scalar OsgEarthNet.uav[97] utilizationCountIdleState 2
scalar OsgEarthNet.uav[97] utilizationFail 0
scalar OsgEarthNet.uav[97] simulationTime 12666.299129599
scalar OsgEarthNet.uav[98] utilizationSecMission 1292.4420833722
scalar OsgEarthNet.uav[98] utilizationSecMaintenance 803.61639846576
scalar OsgEarthNet.uav[98] utilizationSecCharge 6672.4113626682
scalar OsgEarthNet.uav[98] utilizationSecIdle 3897.8282850932
scalar OsgEarthNet.uav[98] utilizationEnergyMission 6474.9804000854
scalar OsgEarthNet.uav[98] utilizationEnergyMaintenance 3460.4217758179
scalar OsgEarthNet.uav[98] utilizationEnergyCharge 9754.8852539062
scalar OsgEarthNet.uav[98] utilizationEnergyOverdrawMission 0
scalar OsgEarthNet.uav[98] utilizationEnergyOverdrawMaintenance 0
scalar OsgEarthNet.uav[98] utilizationCountMissions 2
scalar OsgEarthNet.uav[98] utilizationCountManeuversMission 45
scalar OsgEarthNet.uav[98] utilizationCountManeuversMaintenance 4
scalar OsgEarthNet.uav[98] utilizationCountChargeState 2
scalar OsgEarthNet.uav[98] utilizationCountOverdrawnAfterMission 0
scalar OsgEarthNet.uav[98] utilizationCountIdleState 1
scalar OsgEarthNet.uav[98] utilizationFail 0
scalar OsgEarthNet.uav[98] simulationTime 12666.299129599
scalar OsgEarthNet.uav[99] utilizationSecMission 1277.7572251608
scalar OsgEarthNet.uav[99] utilizationSecMaintenance 892.8750686335
scalar OsgEarthNet.uav[99] utilizationSecCharge 7145.0964118934
scalar OsgEarthNet.uav[99] utilizationSecIdle 3350.5694239118
scalar OsgEarthNet.uav[99] utilizationEnergyMission 5967.8152084351
scalar OsgEarthNet.uav[99] utilizationEnergyMaintenance 4166.2125473022
scalar OsgEarthNet.uav[99] utilizationEnergyCharge 10044.581542969
scalar OsgEarthNet.uav[99] utilizationEnergyOverdrawMission 0
scalar OsgEarthNet.uav[99] utilizationEnergyOverdrawMaintenance 39.135101318359
scalar OsgEarthNet.uav[99] utilizationCountMissions 2
scalar OsgEarthNet.uav[99] utilizationCountManeuversMission 21
scalar OsgEarthNet.uav[99] utilizationCountManeuversMaintenance 4
scalar OsgEarthNet.uav[99] utilizationCountChargeState 2
scalar OsgEarthNet.uav[99] utilizationCountOverdrawnAfterMission 1
scalar OsgEarthNet.uav[99] utilizationCountIdleState 2
scalar OsgEarthNet.uav[99] utilizationFail 0
scalar OsgEarthNet.uav[99] simulationTime 12666.299129599
scalar OsgEarthNet.cs[0] usedPower 169086.13442543
scalar OsgEarthNet.cs[0] chargedPower 169086.13442543
scalar OsgEarthNet.cs[0] chargedMobileNodes 25
scalar OsgEarthNet.cs[0] reservations 40
scalar OsgEarthNet.cs[1] usedPower 164490.22731835
scalar OsgEarthNet.cs[1] chargedPower 164490.22731835
scalar OsgEarthNet.cs[1] chargedMobileNodes 19
scalar OsgEarthNet.cs[1] reservations 40
scalar OsgEarthNet.cs[2] usedPower 355181.28836091
scalar OsgEarthNet.cs[2] chargedPower 355181.28836091
scalar OsgEarthNet.cs[2] chargedMobileNodes 56
scalar OsgEarthNet.cs[2] reservations 81

