version 2
run Szenario_Hotel_Gabelbach-44-20180707-22:33:47-49888
attr configname Szenario_Hotel_Gabelbach
attr datetime 20180707-22:33:47
attr experiment Szenario_Hotel_Gabelbach
attr inifile omnetpp.ini
attr iterationvars "$quant=0.75, $replM=0"
attr iterationvarsf quant=0.75,replM=0-
attr measurement "$quant=0.75, $replM=0"
attr network OsgEarthNet
attr processid 49888
attr repetition 20
attr replication #20
attr resultdir results
attr runnumber 44
attr seedset 44
itervar quant 0.75
itervar replM 0
param *.osgEarthScene.scene "\"Szenario_Hotel_Gabelbach.earth\""
param *.playgroundLatitude 50.6830269
param *.playgroundLongitude 10.8538055
param *.playgroundWidth 3500m
param *.playgroundHeight 3500m
param *.numCSs 3
param *.numUAVs 100
param *.cs[0].posX 3537m
param *.cs[0].posY 965m
param *.cs[0].posZ 538m
param *.cs[1].posX 312m
param *.cs[1].posY 1262m
param *.cs[1].posZ 539m
param *.cs[2].posX 2185m
param *.cs[2].posY 3026m
param *.cs[2].posZ 777m
param *.uav[*].predictionQuantile 0.75
param *.uav[*].replacementMethod 0
param *.*.timeStep 10s
param *.uav[*].commandPreviewCommandCount 20
param *.missionControl.missionFiles "\"missions\\\\Szenario_WB_Hotel_Gabelbach_Mission_Hotel.waypoints,missions\\\\Szenario_WB_Hotel_Gabelbach_Mission_Kickelhahn.waypoints,missions\\\\Szenario_WB_Hotel_Gabelbach_Mission_Ilmenau_Sportplatz.waypoints,missions\\\\Szenario_WB_Hotel_Gabelbach_Mission_Manebach_Mitte.waypoints,missions\\\\Szenario_WB_Hotel_Gabelbach_Mission_Manebach_Sued.waypoints,missions\\\\Szenario_WB_Hotel_Gabelbach_Hover_HoheSchlaufe.waypoints,missions\\\\Szenario_WB_Hotel_Gabelbach_Hover_Kickelhahn.waypoints,missions\\\\Szenario_WB_Hotel_Gabelbach_Hover_Gabelbachskopf.waypoints,missions\\\\Szenario_WB_Hotel_Gabelbach_Hover_Dachskopf.waypoints\""
param *.uav[0].startX 3537m
param *.uav[0].startY 965m
param *.uav[0].startZ 539m
param *.uav[1].startX 312m
param *.uav[1].startY 1262m
param *.uav[1].startZ 540m
param *.uav[2].startX 2185m
param *.uav[2].startY 3026m
param *.uav[2].startZ 778m
param *.uav[3].startX 3537m
param *.uav[3].startY 965m
param *.uav[3].startZ 539m
param *.uav[4].startX 312m
param *.uav[4].startY 1262m
param *.uav[4].startZ 540m
param *.uav[5].startX 2185m
param *.uav[5].startY 3026m
param *.uav[5].startZ 778m
param *.uav[6].startX 3537m
param *.uav[6].startY 965m
param *.uav[6].startZ 539m
param *.uav[7].startX 312m
param *.uav[7].startY 1262m
param *.uav[7].startZ 540m
param *.uav[8].startX 2185m
param *.uav[8].startY 3026m
param *.uav[8].startZ 778m
param *.uav[9].startX 3537m
param *.uav[9].startY 965m
param *.uav[9].startZ 539m
param *.uav[10].startX 3537m
param *.uav[10].startY 965m
param *.uav[10].startZ 539m
param *.uav[11].startX 312m
param *.uav[11].startY 1262m
param *.uav[11].startZ 540m
param *.uav[12].startX 2185m
param *.uav[12].startY 3026m
param *.uav[12].startZ 778m
param *.uav[13].startX 3537m
param *.uav[13].startY 965m
param *.uav[13].startZ 539m
param *.uav[14].startX 312m
param *.uav[14].startY 1262m
param *.uav[14].startZ 540m
param *.uav[15].startX 2185m
param *.uav[15].startY 3026m
param *.uav[15].startZ 778m
param *.uav[16].startX 3537m
param *.uav[16].startY 965m
param *.uav[16].startZ 539m
param *.uav[17].startX 312m
param *.uav[17].startY 1262m
param *.uav[17].startZ 540m
param *.uav[18].startX 2185m
param *.uav[18].startY 3026m
param *.uav[18].startZ 778m
param *.uav[19].startX 3537m
param *.uav[19].startY 965m
param *.uav[19].startZ 539m
param *.uav[20].startX 3537m
param *.uav[20].startY 965m
param *.uav[20].startZ 539m
param *.uav[21].startX 312m
param *.uav[21].startY 1262m
param *.uav[21].startZ 540m
param *.uav[22].startX 2185m
param *.uav[22].startY 3026m
param *.uav[22].startZ 778m
param *.uav[23].startX 3537m
param *.uav[23].startY 965m
param *.uav[23].startZ 539m
param *.uav[24].startX 312m
param *.uav[24].startY 1262m
param *.uav[24].startZ 540m
param *.uav[25].startX 2185m
param *.uav[25].startY 3026m
param *.uav[25].startZ 778m
param *.uav[26].startX 3537m
param *.uav[26].startY 965m
param *.uav[26].startZ 539m
param *.uav[27].startX 312m
param *.uav[27].startY 1262m
param *.uav[27].startZ 540m
param *.uav[28].startX 2185m
param *.uav[28].startY 3026m
param *.uav[28].startZ 778m
param *.uav[29].startX 3537m
param *.uav[29].startY 965m
param *.uav[29].startZ 539m
param *.uav[30].startX 3537m
param *.uav[30].startY 965m
param *.uav[30].startZ 539m
param *.uav[31].startX 312m
param *.uav[31].startY 1262m
param *.uav[31].startZ 540m
param *.uav[32].startX 2185m
param *.uav[32].startY 3026m
param *.uav[32].startZ 778m
param *.uav[33].startX 3537m
param *.uav[33].startY 965m
param *.uav[33].startZ 539m
param *.uav[34].startX 312m
param *.uav[34].startY 1262m
param *.uav[34].startZ 540m
param *.uav[35].startX 2185m
param *.uav[35].startY 3026m
param *.uav[35].startZ 778m
param *.uav[36].startX 3537m
param *.uav[36].startY 965m
param *.uav[36].startZ 539m
param *.uav[37].startX 312m
param *.uav[37].startY 1262m
param *.uav[37].startZ 540m
param *.uav[38].startX 2185m
param *.uav[38].startY 3026m
param *.uav[38].startZ 778m
param *.uav[39].startX 3537m
param *.uav[39].startY 965m
param *.uav[39].startZ 539m
param *.uav[40].startX 3537m
param *.uav[40].startY 965m
param *.uav[40].startZ 539m
param *.uav[41].startX 312m
param *.uav[41].startY 1262m
param *.uav[41].startZ 540m
param *.uav[42].startX 2185m
param *.uav[42].startY 3026m
param *.uav[42].startZ 778m
param *.uav[43].startX 3537m
param *.uav[43].startY 965m
param *.uav[43].startZ 539m
param *.uav[44].startX 312m
param *.uav[44].startY 1262m
param *.uav[44].startZ 540m
param *.uav[45].startX 2185m
param *.uav[45].startY 3026m
param *.uav[45].startZ 778m
param *.uav[46].startX 3537m
param *.uav[46].startY 965m
param *.uav[46].startZ 539m
param *.uav[47].startX 312m
param *.uav[47].startY 1262m
param *.uav[47].startZ 540m
param *.uav[48].startX 2185m
param *.uav[48].startY 3026m
param *.uav[48].startZ 778m
param *.uav[49].startX 3537m
param *.uav[49].startY 965m
param *.uav[49].startZ 539m
param *.uav[50].startX 3537m
param *.uav[50].startY 965m
param *.uav[50].startZ 539m
param *.uav[51].startX 312m
param *.uav[51].startY 1262m
param *.uav[51].startZ 540m
param *.uav[52].startX 2185m
param *.uav[52].startY 3026m
param *.uav[52].startZ 778m
param *.uav[53].startX 3537m
param *.uav[53].startY 965m
param *.uav[53].startZ 539m
param *.uav[54].startX 312m
param *.uav[54].startY 1262m
param *.uav[54].startZ 540m
param *.uav[55].startX 2185m
param *.uav[55].startY 3026m
param *.uav[55].startZ 778m
param *.uav[56].startX 3537m
param *.uav[56].startY 965m
param *.uav[56].startZ 539m
param *.uav[57].startX 312m
param *.uav[57].startY 1262m
param *.uav[57].startZ 540m
param *.uav[58].startX 2185m
param *.uav[58].startY 3026m
param *.uav[58].startZ 778m
param *.uav[59].startX 3537m
param *.uav[59].startY 965m
param *.uav[59].startZ 539m
param *.uav[60].startX 3537m
param *.uav[60].startY 965m
param *.uav[60].startZ 539m
param *.uav[61].startX 312m
param *.uav[61].startY 1262m
param *.uav[61].startZ 540m
param *.uav[62].startX 2185m
param *.uav[62].startY 3026m
param *.uav[62].startZ 778m
param *.uav[63].startX 3537m
param *.uav[63].startY 965m
param *.uav[63].startZ 539m
param *.uav[64].startX 312m
param *.uav[64].startY 1262m
param *.uav[64].startZ 540m
param *.uav[65].startX 2185m
param *.uav[65].startY 3026m
param *.uav[65].startZ 778m
param *.uav[66].startX 3537m
param *.uav[66].startY 965m
param *.uav[66].startZ 539m
param *.uav[67].startX 312m
param *.uav[67].startY 1262m
param *.uav[67].startZ 540m
param *.uav[68].startX 2185m
param *.uav[68].startY 3026m
param *.uav[68].startZ 778m
param *.uav[69].startX 3537m
param *.uav[69].startY 965m
param *.uav[69].startZ 539m
param *.uav[70].startX 3537m
param *.uav[70].startY 965m
param *.uav[70].startZ 539m
param *.uav[71].startX 312m
param *.uav[71].startY 1262m
param *.uav[71].startZ 540m
param *.uav[72].startX 2185m
param *.uav[72].startY 3026m
param *.uav[72].startZ 778m
param *.uav[73].startX 3537m
param *.uav[73].startY 965m
param *.uav[73].startZ 539m
param *.uav[74].startX 312m
param *.uav[74].startY 1262m
param *.uav[74].startZ 540m
param *.uav[75].startX 2185m
param *.uav[75].startY 3026m
param *.uav[75].startZ 778m
param *.uav[76].startX 3537m
param *.uav[76].startY 965m
param *.uav[76].startZ 539m
param *.uav[77].startX 312m
param *.uav[77].startY 1262m
param *.uav[77].startZ 540m
param *.uav[78].startX 2185m
param *.uav[78].startY 3026m
param *.uav[78].startZ 778m
param *.uav[79].startX 3537m
param *.uav[79].startY 965m
param *.uav[79].startZ 539m
param *.uav[80].startX 3537m
param *.uav[80].startY 965m
param *.uav[80].startZ 539m
param *.uav[81].startX 312m
param *.uav[81].startY 1262m
param *.uav[81].startZ 540m
param *.uav[82].startX 2185m
param *.uav[82].startY 3026m
param *.uav[82].startZ 778m
param *.uav[83].startX 3537m
param *.uav[83].startY 965m
param *.uav[83].startZ 539m
param *.uav[84].startX 312m
param *.uav[84].startY 1262m
param *.uav[84].startZ 540m
param *.uav[85].startX 2185m
param *.uav[85].startY 3026m
param *.uav[85].startZ 778m
param *.uav[86].startX 3537m
param *.uav[86].startY 965m
param *.uav[86].startZ 539m
param *.uav[87].startX 312m
param *.uav[87].startY 1262m
param *.uav[87].startZ 540m
param *.uav[88].startX 2185m
param *.uav[88].startY 3026m
param *.uav[88].startZ 778m
param *.uav[89].startX 3537m
param *.uav[89].startY 965m
param *.uav[89].startZ 539m
param *.uav[90].startX 3537m
param *.uav[90].startY 965m
param *.uav[90].startZ 539m
param *.uav[91].startX 312m
param *.uav[91].startY 1262m
param *.uav[91].startZ 540m
param *.uav[92].startX 2185m
param *.uav[92].startY 3026m
param *.uav[92].startZ 778m
param *.uav[93].startX 3537m
param *.uav[93].startY 965m
param *.uav[93].startZ 539m
param *.uav[94].startX 312m
param *.uav[94].startY 1262m
param *.uav[94].startZ 540m
param *.uav[95].startX 2185m
param *.uav[95].startY 3026m
param *.uav[95].startZ 778m
param *.uav[96].startX 3537m
param *.uav[96].startY 965m
param *.uav[96].startZ 539m
param *.uav[97].startX 312m
param *.uav[97].startY 1262m
param *.uav[97].startZ 540m
param *.uav[98].startX 2185m
param *.uav[98].startY 3026m
param *.uav[98].startZ 778m
param *.uav[99].startX 3537m
param *.uav[99].startY 965m
param *.uav[99].startZ 539m
param *.osgEarthScene.scene "\"boston.earth\""
param *.playgroundLatitude 42.3558
param *.playgroundLongitude -71.0677
param *.playgroundWidth 400m
param *.playgroundHeight 200m
param *.channelController.connectionColor "\"#0000FF40\""
param *.channelController.showConnections false
param *.uav[*].modelURL "\"quadrocopter.small.obj.15.scale.0,0,90.rot\""
param *.uav[*].labelColor "\"#FF7C00CC\""
param *.uav[*].label2Color "\"#FF7C00EE\""
param *.uav[*].batteryCapacity 5200mAh
param *.uav[*].batteryRemaining uav[index].batteryCapacity
param *.uav[*].predictionQuantile 0.95
param *.uav[*].replacementMethod 2
param *.uav[*].weightedSumWeight 0.5
param *.cs[*].modelURL "\"chargingstation_v1.osgt.1.scale.0,0,0.rot.0,0,-15e-1.trans\""
param *.cs[*].spotsWaiting 999
param *.cs[*].spotsCharging 999
param *.cs[*].chargeEffectivenessPercentage 100
param *.cs[*].nonLinearPhaseStartPercentage 85
param *.cs[*].chargeCurrent 6.0A
param *.cs[*].prioritizeFastCharge true
param *.missionControl.replacementSearchMethod 0
param *.*.timeStep 9s

scalar OsgEarthNet.uav[0] utilizationSecMission 777.63549584169
scalar OsgEarthNet.uav[0] utilizationSecMaintenance 351.76861483848
scalar OsgEarthNet.uav[0] utilizationSecCharge 3740
scalar OsgEarthNet.uav[0] utilizationSecIdle 254330.59488932
scalar OsgEarthNet.uav[0] utilizationEnergyMission 3392.1624908447
scalar OsgEarthNet.uav[0] utilizationEnergyMaintenance 1570.9938583374
scalar OsgEarthNet.uav[0] utilizationEnergyCharge 5006.3935546875
scalar OsgEarthNet.uav[0] utilizationEnergyOverdrawMission 0
scalar OsgEarthNet.uav[0] utilizationEnergyOverdrawMaintenance 0
scalar OsgEarthNet.uav[0] utilizationCountMissions 1
scalar OsgEarthNet.uav[0] utilizationCountManeuversMission 12
scalar OsgEarthNet.uav[0] utilizationCountManeuversMaintenance 2
scalar OsgEarthNet.uav[0] utilizationCountChargeState 1
scalar OsgEarthNet.uav[0] utilizationCountOverdrawnAfterMission 0
scalar OsgEarthNet.uav[0] utilizationCountIdleState 2
scalar OsgEarthNet.uav[0] utilizationFail 0
scalar OsgEarthNet.uav[0] simulationTime 259200
scalar OsgEarthNet.uav[1] utilizationSecMission 24588.749351572
scalar OsgEarthNet.uav[1] utilizationSecMaintenance 18228.307222217
scalar OsgEarthNet.uav[1] utilizationSecCharge 151866.51316499
scalar OsgEarthNet.uav[1] utilizationSecIdle 64516.429261223
scalar OsgEarthNet.uav[1] utilizationEnergyMission 117847.51635742
scalar OsgEarthNet.uav[1] utilizationEnergyMaintenance 84512.073394775
scalar OsgEarthNet.uav[1] utilizationEnergyCharge 201341.02050781
scalar OsgEarthNet.uav[1] utilizationEnergyOverdrawMission 0
scalar OsgEarthNet.uav[1] utilizationEnergyOverdrawMaintenance 57.323265075684
scalar OsgEarthNet.uav[1] utilizationCountMissions 42
scalar OsgEarthNet.uav[1] utilizationCountManeuversMission 748
scalar OsgEarthNet.uav[1] utilizationCountManeuversMaintenance 84
scalar OsgEarthNet.uav[1] utilizationCountChargeState 42
scalar OsgEarthNet.uav[1] utilizationCountOverdrawnAfterMission 1
scalar OsgEarthNet.uav[1] utilizationCountIdleState 42
scalar OsgEarthNet.uav[1] utilizationFail 0
scalar OsgEarthNet.uav[1] simulationTime 259200
scalar OsgEarthNet.uav[2] utilizationSecMission 5244.6475111689
scalar OsgEarthNet.uav[2] utilizationSecMaintenance 3757.902018005
scalar OsgEarthNet.uav[2] utilizationSecCharge 31770
scalar OsgEarthNet.uav[2] utilizationSecIdle 218427.44947083
scalar OsgEarthNet.uav[2] utilizationEnergyMission 24400.794200897
scalar OsgEarthNet.uav[2] utilizationEnergyMaintenance 17631.973735809
scalar OsgEarthNet.uav[2] utilizationEnergyCharge 41445.378417969
scalar OsgEarthNet.uav[2] utilizationEnergyOverdrawMission 0
scalar OsgEarthNet.uav[2] utilizationEnergyOverdrawMaintenance 0
scalar OsgEarthNet.uav[2] utilizationCountMissions 9
scalar OsgEarthNet.uav[2] utilizationCountManeuversMission 132
scalar OsgEarthNet.uav[2] utilizationCountManeuversMaintenance 18
scalar OsgEarthNet.uav[2] utilizationCountChargeState 9
scalar OsgEarthNet.uav[2] utilizationCountOverdrawnAfterMission 0
scalar OsgEarthNet.uav[2] utilizationCountIdleState 10
scalar OsgEarthNet.uav[2] utilizationFail 0
scalar OsgEarthNet.uav[2] simulationTime 259200
scalar OsgEarthNet.uav[3] utilizationSecMission 27100.142602084
scalar OsgEarthNet.uav[3] utilizationSecMaintenance 18308.877284134
scalar OsgEarthNet.uav[3] utilizationSecCharge 159876.33469445
scalar OsgEarthNet.uav[3] utilizationSecIdle 53914.64441933
scalar OsgEarthNet.uav[3] utilizationEnergyMission 128823.9288559
scalar OsgEarthNet.uav[3] utilizationEnergyMaintenance 84933.183177948
scalar OsgEarthNet.uav[3] utilizationEnergyCharge 212437.234375
scalar OsgEarthNet.uav[3] utilizationEnergyOverdrawMission 0
scalar OsgEarthNet.uav[3] utilizationEnergyOverdrawMaintenance 34.541477203369
scalar OsgEarthNet.uav[3] utilizationCountMissions 44
scalar OsgEarthNet.uav[3] utilizationCountManeuversMission 707
scalar OsgEarthNet.uav[3] utilizationCountManeuversMaintenance 88
scalar OsgEarthNet.uav[3] utilizationCountChargeState 44
scalar OsgEarthNet.uav[3] utilizationCountOverdrawnAfterMission 2
scalar OsgEarthNet.uav[3] utilizationCountIdleState 44
scalar OsgEarthNet.uav[3] utilizationFail 0
scalar OsgEarthNet.uav[3] simulationTime 259200
scalar OsgEarthNet.uav[4] utilizationSecMission 440
scalar OsgEarthNet.uav[4] utilizationSecMaintenance 507.16988087142
scalar OsgEarthNet.uav[4] utilizationSecCharge 3610
scalar OsgEarthNet.uav[4] utilizationSecIdle 254642.82911913
scalar OsgEarthNet.uav[4] utilizationEnergyMission 2351.6091117859
scalar OsgEarthNet.uav[4] utilizationEnergyMaintenance 2453.2744865418
scalar OsgEarthNet.uav[4] utilizationEnergyCharge 4752.759765625
scalar OsgEarthNet.uav[4] utilizationEnergyOverdrawMission 0
scalar OsgEarthNet.uav[4] utilizationEnergyOverdrawMaintenance 0
scalar OsgEarthNet.uav[4] utilizationCountMissions 1
scalar OsgEarthNet.uav[4] utilizationCountManeuversMission 22
scalar OsgEarthNet.uav[4] utilizationCountManeuversMaintenance 2
scalar OsgEarthNet.uav[4] utilizationCountChargeState 1
scalar OsgEarthNet.uav[4] utilizationCountOverdrawnAfterMission 0
scalar OsgEarthNet.uav[4] utilizationCountIdleState 2
scalar OsgEarthNet.uav[4] utilizationFail 0
scalar OsgEarthNet.uav[4] simulationTime 259200
scalar OsgEarthNet.uav[5] utilizationSecMission 19965.667723856
scalar OsgEarthNet.uav[5] utilizationSecMaintenance 15594.4944562
scalar OsgEarthNet.uav[5] utilizationSecCharge 127550
scalar OsgEarthNet.uav[5] utilizationSecIdle 96089.836819944
scalar OsgEarthNet.uav[5] utilizationEnergyMission 95691.701900482
scalar OsgEarthNet.uav[5] utilizationEnergyMaintenance 72915.522207291
scalar OsgEarthNet.uav[5] utilizationEnergyCharge 168053.86914062
scalar OsgEarthNet.uav[5] utilizationEnergyOverdrawMission 0
scalar OsgEarthNet.uav[5] utilizationEnergyOverdrawMaintenance 0
scalar OsgEarthNet.uav[5] utilizationCountMissions 35
scalar OsgEarthNet.uav[5] utilizationCountManeuversMission 632
scalar OsgEarthNet.uav[5] utilizationCountManeuversMaintenance 71
scalar OsgEarthNet.uav[5] utilizationCountChargeState 35
scalar OsgEarthNet.uav[5] utilizationCountOverdrawnAfterMission 0
scalar OsgEarthNet.uav[5] utilizationCountIdleState 36
scalar OsgEarthNet.uav[5] utilizationFail 0
scalar OsgEarthNet.uav[5] simulationTime 259200
scalar OsgEarthNet.uav[6] utilizationSecMission 373.51498974598
scalar OsgEarthNet.uav[6] utilizationSecMaintenance 615.18747367862
scalar OsgEarthNet.uav[6] utilizationSecCharge 3590
scalar OsgEarthNet.uav[6] utilizationSecIdle 254621.29653658
scalar OsgEarthNet.uav[6] utilizationEnergyMission 1803.7924804687
scalar OsgEarthNet.uav[6] utilizationEnergyMaintenance 2890.2089958191
scalar OsgEarthNet.uav[6] utilizationEnergyCharge 4694
scalar OsgEarthNet.uav[6] utilizationEnergyOverdrawMission 0
scalar OsgEarthNet.uav[6] utilizationEnergyOverdrawMaintenance 0
scalar OsgEarthNet.uav[6] utilizationCountMissions 1
scalar OsgEarthNet.uav[6] utilizationCountManeuversMission 7
scalar OsgEarthNet.uav[6] utilizationCountManeuversMaintenance 2
scalar OsgEarthNet.uav[6] utilizationCountChargeState 1
scalar OsgEarthNet.uav[6] utilizationCountOverdrawnAfterMission 0
scalar OsgEarthNet.uav[6] utilizationCountIdleState 2
scalar OsgEarthNet.uav[6] utilizationFail 0
scalar OsgEarthNet.uav[6] simulationTime 259200
scalar OsgEarthNet.uav[7] utilizationSecMission 29298.030408713
scalar OsgEarthNet.uav[7] utilizationSecMaintenance 19894.138752752
scalar OsgEarthNet.uav[7] utilizationSecCharge 175521.40557731
scalar OsgEarthNet.uav[7] utilizationSecIdle 34486.424261223
scalar OsgEarthNet.uav[7] utilizationEnergyMission 142375.72219849
scalar OsgEarthNet.uav[7] utilizationEnergyMaintenance 92600.62064743
scalar OsgEarthNet.uav[7] utilizationEnergyCharge 231717.64942932
scalar OsgEarthNet.uav[7] utilizationEnergyOverdrawMission 0
scalar OsgEarthNet.uav[7] utilizationEnergyOverdrawMaintenance 14.194932937622
scalar OsgEarthNet.uav[7] utilizationCountMissions 49
scalar OsgEarthNet.uav[7] utilizationCountManeuversMission 945
scalar OsgEarthNet.uav[7] utilizationCountManeuversMaintenance 98
scalar OsgEarthNet.uav[7] utilizationCountChargeState 49
scalar OsgEarthNet.uav[7] utilizationCountOverdrawnAfterMission 1
scalar OsgEarthNet.uav[7] utilizationCountIdleState 49
scalar OsgEarthNet.uav[7] utilizationFail 0
scalar OsgEarthNet.uav[7] simulationTime 259200
scalar OsgEarthNet.uav[8] utilizationSecMission 29965.963807765
scalar OsgEarthNet.uav[8] utilizationSecMaintenance 19267.318312909
scalar OsgEarthNet.uav[8] utilizationSecCharge 172864.71587933
scalar OsgEarthNet.uav[8] utilizationSecIdle 37102.001
scalar OsgEarthNet.uav[8] utilizationEnergyMission 145787.9568634
scalar OsgEarthNet.uav[8] utilizationEnergyMaintenance 88153.595340729
scalar OsgEarthNet.uav[8] utilizationEnergyCharge 228747.67489624
scalar OsgEarthNet.uav[8] utilizationEnergyOverdrawMission 0
scalar OsgEarthNet.uav[8] utilizationEnergyOverdrawMaintenance 0
scalar OsgEarthNet.uav[8] utilizationCountMissions 48
scalar OsgEarthNet.uav[8] utilizationCountManeuversMission 938
scalar OsgEarthNet.uav[8] utilizationCountManeuversMaintenance 96
scalar OsgEarthNet.uav[8] utilizationCountChargeState 48
scalar OsgEarthNet.uav[8] utilizationCountOverdrawnAfterMission 0
scalar OsgEarthNet.uav[8] utilizationCountIdleState 48
scalar OsgEarthNet.uav[8] utilizationFail 0
scalar OsgEarthNet.uav[8] simulationTime 259200
scalar OsgEarthNet.uav[9] utilizationSecMission 645.47405733167
scalar OsgEarthNet.uav[9] utilizationSecMaintenance 393.86419216954
scalar OsgEarthNet.uav[9] utilizationSecCharge 3620
scalar OsgEarthNet.uav[9] utilizationSecIdle 254540.6607505
scalar OsgEarthNet.uav[9] utilizationEnergyMission 2953.9673919678
scalar OsgEarthNet.uav[9] utilizationEnergyMaintenance 1775.6474533081
scalar OsgEarthNet.uav[9] utilizationEnergyCharge 4750.5014648438
scalar OsgEarthNet.uav[9] utilizationEnergyOverdrawMission 0
scalar OsgEarthNet.uav[9] utilizationEnergyOverdrawMaintenance 0
scalar OsgEarthNet.uav[9] utilizationCountMissions 1
scalar OsgEarthNet.uav[9] utilizationCountManeuversMission 10
scalar OsgEarthNet.uav[9] utilizationCountManeuversMaintenance 2
scalar OsgEarthNet.uav[9] utilizationCountChargeState 1
scalar OsgEarthNet.uav[9] utilizationCountOverdrawnAfterMission 0
scalar OsgEarthNet.uav[9] utilizationCountIdleState 2
scalar OsgEarthNet.uav[9] utilizationFail 0
scalar OsgEarthNet.uav[9] simulationTime 259200
scalar OsgEarthNet.uav[10] utilizationSecMission 29006.632514427
scalar OsgEarthNet.uav[10] utilizationSecMaintenance 21581.366485573
scalar OsgEarthNet.uav[10] utilizationSecCharge 180720
scalar OsgEarthNet.uav[10] utilizationSecIdle 27892
scalar OsgEarthNet.uav[10] utilizationEnergyMission 140832.68685532
scalar OsgEarthNet.uav[10] utilizationEnergyMaintenance 100333.20846979
scalar OsgEarthNet.uav[10] utilizationEnergyCharge 239174.05371094
scalar OsgEarthNet.uav[10] utilizationEnergyOverdrawMission 0
scalar OsgEarthNet.uav[10] utilizationEnergyOverdrawMaintenance 0
scalar OsgEarthNet.uav[10] utilizationCountMissions 50
scalar OsgEarthNet.uav[10] utilizationCountManeuversMission 922
scalar OsgEarthNet.uav[10] utilizationCountManeuversMaintenance 99
scalar OsgEarthNet.uav[10] utilizationCountChargeState 49
scalar OsgEarthNet.uav[10] utilizationCountOverdrawnAfterMission 0
scalar OsgEarthNet.uav[10] utilizationCountIdleState 50
scalar OsgEarthNet.uav[10] utilizationFail 0
scalar OsgEarthNet.uav[10] simulationTime 259200
scalar OsgEarthNet.uav[11] utilizationSecMission 20680.936269474
scalar OsgEarthNet.uav[11] utilizationSecMaintenance 15196.226797245
scalar OsgEarthNet.uav[11] utilizationSecCharge 126848.35573126
scalar OsgEarthNet.uav[11] utilizationSecIdle 96474.480202016
scalar OsgEarthNet.uav[11] utilizationEnergyMission 100434.56202698
scalar OsgEarthNet.uav[11] utilizationEnergyMaintenance 71829.642871857
scalar OsgEarthNet.uav[11] utilizationEnergyCharge 168657.81408691
scalar OsgEarthNet.uav[11] utilizationEnergyOverdrawMission 0
scalar OsgEarthNet.uav[11] utilizationEnergyOverdrawMaintenance 259.64695739746
scalar OsgEarthNet.uav[11] utilizationCountMissions 35
scalar OsgEarthNet.uav[11] utilizationCountManeuversMission 594
scalar OsgEarthNet.uav[11] utilizationCountManeuversMaintenance 70
scalar OsgEarthNet.uav[11] utilizationCountChargeState 35
scalar OsgEarthNet.uav[11] utilizationCountOverdrawnAfterMission 2
scalar OsgEarthNet.uav[11] utilizationCountIdleState 35
scalar OsgEarthNet.uav[11] utilizationFail 0
scalar OsgEarthNet.uav[11] simulationTime 259200
scalar OsgEarthNet.uav[12] utilizationSecMission 27517.843633568
scalar OsgEarthNet.uav[12] utilizationSecMaintenance 20699.7222657
scalar OsgEarthNet.uav[12] utilizationSecCharge 172994.9828367
scalar OsgEarthNet.uav[12] utilizationSecIdle 37987.450264031
scalar OsgEarthNet.uav[12] utilizationEnergyMission 131464.00715256
scalar OsgEarthNet.uav[12] utilizationEnergyMaintenance 97746.654960632
scalar OsgEarthNet.uav[12] utilizationEnergyCharge 228634.0859375
scalar OsgEarthNet.uav[12] utilizationEnergyOverdrawMission 0
scalar OsgEarthNet.uav[12] utilizationEnergyOverdrawMaintenance 52.157470703125
scalar OsgEarthNet.uav[12] utilizationCountMissions 48
scalar OsgEarthNet.uav[12] utilizationCountManeuversMission 803
scalar OsgEarthNet.uav[12] utilizationCountManeuversMaintenance 96
scalar OsgEarthNet.uav[12] utilizationCountChargeState 48
scalar OsgEarthNet.uav[12] utilizationCountOverdrawnAfterMission 1
scalar OsgEarthNet.uav[12] utilizationCountIdleState 48
scalar OsgEarthNet.uav[12] utilizationFail 0
scalar OsgEarthNet.uav[12] simulationTime 259200
scalar OsgEarthNet.uav[13] utilizationSecMission 21911.166894546
scalar OsgEarthNet.uav[13] utilizationSecMaintenance 17747.5067364
scalar OsgEarthNet.uav[13] utilizationSecCharge 140229.31536905
scalar OsgEarthNet.uav[13] utilizationSecIdle 79312.01
scalar OsgEarthNet.uav[13] utilizationEnergyMission 107523.11292267
scalar OsgEarthNet.uav[13] utilizationEnergyMaintenance 81188.488174438
scalar OsgEarthNet.uav[13] utilizationEnergyCharge 185733.50268555
scalar OsgEarthNet.uav[13] utilizationEnergyOverdrawMission 0
scalar OsgEarthNet.uav[13] utilizationEnergyOverdrawMaintenance 0
scalar OsgEarthNet.uav[13] utilizationCountMissions 39
scalar OsgEarthNet.uav[13] utilizationCountManeuversMission 748
scalar OsgEarthNet.uav[13] utilizationCountManeuversMaintenance 78
scalar OsgEarthNet.uav[13] utilizationCountChargeState 39
scalar OsgEarthNet.uav[13] utilizationCountOverdrawnAfterMission 0
scalar OsgEarthNet.uav[13] utilizationCountIdleState 39
scalar OsgEarthNet.uav[13] utilizationFail 0
scalar OsgEarthNet.uav[13] simulationTime 259200
scalar OsgEarthNet.uav[14] utilizationSecMission 533.25626237336
scalar OsgEarthNet.uav[14] utilizationSecMaintenance 451.14699917938
scalar OsgEarthNet.uav[14] utilizationSecCharge 3740
scalar OsgEarthNet.uav[14] utilizationSecIdle 254475.59573845
scalar OsgEarthNet.uav[14] utilizationEnergyMission 2420.4048156738
scalar OsgEarthNet.uav[14] utilizationEnergyMaintenance 2422.6309013367
scalar OsgEarthNet.uav[14] utilizationEnergyCharge 4972.1909179688
scalar OsgEarthNet.uav[14] utilizationEnergyOverdrawMission 0
scalar OsgEarthNet.uav[14] utilizationEnergyOverdrawMaintenance 0
scalar OsgEarthNet.uav[14] utilizationCountMissions 1
scalar OsgEarthNet.uav[14] utilizationCountManeuversMission 8
scalar OsgEarthNet.uav[14] utilizationCountManeuversMaintenance 2
scalar OsgEarthNet.uav[14] utilizationCountChargeState 1
scalar OsgEarthNet.uav[14] utilizationCountOverdrawnAfterMission 0
scalar OsgEarthNet.uav[14] utilizationCountIdleState 2
scalar OsgEarthNet.uav[14] utilizationFail 0
scalar OsgEarthNet.uav[14] simulationTime 259200
scalar OsgEarthNet.uav[15] utilizationSecMission 3271.3155238197
scalar OsgEarthNet.uav[15] utilizationSecMaintenance 2732.4396572244
scalar OsgEarthNet.uav[15] utilizationSecCharge 21790
scalar OsgEarthNet.uav[15] utilizationSecIdle 231406.24381896
scalar OsgEarthNet.uav[15] utilizationEnergyMission 15784.968532562
scalar OsgEarthNet.uav[15] utilizationEnergyMaintenance 12744.078895569
scalar OsgEarthNet.uav[15] utilizationEnergyCharge 28637.598632812
scalar OsgEarthNet.uav[15] utilizationEnergyOverdrawMission 0
scalar OsgEarthNet.uav[15] utilizationEnergyOverdrawMaintenance 0
scalar OsgEarthNet.uav[15] utilizationCountMissions 6
scalar OsgEarthNet.uav[15] utilizationCountManeuversMission 91
scalar OsgEarthNet.uav[15] utilizationCountManeuversMaintenance 12
scalar OsgEarthNet.uav[15] utilizationCountChargeState 6
scalar OsgEarthNet.uav[15] utilizationCountOverdrawnAfterMission 0
scalar OsgEarthNet.uav[15] utilizationCountIdleState 7
scalar OsgEarthNet.uav[15] utilizationFail 0
scalar OsgEarthNet.uav[15] simulationTime 259200
scalar OsgEarthNet.uav[16] utilizationSecMission 10087.780994663
scalar OsgEarthNet.uav[16] utilizationSecMaintenance 8120.5716344729
scalar OsgEarthNet.uav[16] utilizationSecCharge 66070
scalar OsgEarthNet.uav[16] utilizationSecIdle 174921.64637086
scalar OsgEarthNet.uav[16] utilizationEnergyMission 50545.726287842
scalar OsgEarthNet.uav[16] utilizationEnergyMaintenance 37042.643104553
scalar OsgEarthNet.uav[16] utilizationEnergyCharge 87240.228515625
scalar OsgEarthNet.uav[16] utilizationEnergyOverdrawMission 0
scalar OsgEarthNet.uav[16] utilizationEnergyOverdrawMaintenance 0
scalar OsgEarthNet.uav[16] utilizationCountMissions 18
scalar OsgEarthNet.uav[16] utilizationCountManeuversMission 371
scalar OsgEarthNet.uav[16] utilizationCountManeuversMaintenance 36
scalar OsgEarthNet.uav[16] utilizationCountChargeState 18
scalar OsgEarthNet.uav[16] utilizationCountOverdrawnAfterMission 0
scalar OsgEarthNet.uav[16] utilizationCountIdleState 19
scalar OsgEarthNet.uav[16] utilizationFail 0
scalar OsgEarthNet.uav[16] simulationTime 259200
scalar OsgEarthNet.uav[17] utilizationSecMission 460
scalar OsgEarthNet.uav[17] utilizationSecMaintenance 507.16988087142
scalar OsgEarthNet.uav[17] utilizationSecCharge 3580
scalar OsgEarthNet.uav[17] utilizationSecIdle 254652.82911913
scalar OsgEarthNet.uav[17] utilizationEnergyMission 2270.2288894653
scalar OsgEarthNet.uav[17] utilizationEnergyMaintenance 2319.0455436707
scalar OsgEarthNet.uav[17] utilizationEnergyCharge 4719.6669921875
scalar OsgEarthNet.uav[17] utilizationEnergyOverdrawMission 0
scalar OsgEarthNet.uav[17] utilizationEnergyOverdrawMaintenance 0
scalar OsgEarthNet.uav[17] utilizationCountMissions 1
scalar OsgEarthNet.uav[17] utilizationCountManeuversMission 23
scalar OsgEarthNet.uav[17] utilizationCountManeuversMaintenance 2
scalar OsgEarthNet.uav[17] utilizationCountChargeState 1
scalar OsgEarthNet.uav[17] utilizationCountOverdrawnAfterMission 0
scalar OsgEarthNet.uav[17] utilizationCountIdleState 2
scalar OsgEarthNet.uav[17] utilizationFail 0
scalar OsgEarthNet.uav[17] simulationTime 259200
scalar OsgEarthNet.uav[18] utilizationSecMission 29630.503883327
scalar OsgEarthNet.uav[18] utilizationSecMaintenance 21299.783647897
scalar OsgEarthNet.uav[18] utilizationSecCharge 185037.71146878
scalar OsgEarthNet.uav[18] utilizationSecIdle 23232
scalar OsgEarthNet.uav[18] utilizationEnergyMission 145481.55181122
scalar OsgEarthNet.uav[18] utilizationEnergyMaintenance 99016.56244278
scalar OsgEarthNet.uav[18] utilizationEnergyCharge 244953.81005859
scalar OsgEarthNet.uav[18] utilizationEnergyOverdrawMission 0
scalar OsgEarthNet.uav[18] utilizationEnergyOverdrawMaintenance 0
scalar OsgEarthNet.uav[18] utilizationCountMissions 51
scalar OsgEarthNet.uav[18] utilizationCountManeuversMission 1100
scalar OsgEarthNet.uav[18] utilizationCountManeuversMaintenance 102
scalar OsgEarthNet.uav[18] utilizationCountChargeState 51
scalar OsgEarthNet.uav[18] utilizationCountOverdrawnAfterMission 0
scalar OsgEarthNet.uav[18] utilizationCountIdleState 51
scalar OsgEarthNet.uav[18] utilizationFail 0
scalar OsgEarthNet.uav[18] simulationTime 259200
scalar OsgEarthNet.uav[19] utilizationSecMission 26615.47178786
scalar OsgEarthNet.uav[19] utilizationSecMaintenance 18941.131041172
scalar OsgEarthNet.uav[19] utilizationSecCharge 163371.38917097
scalar OsgEarthNet.uav[19] utilizationSecIdle 50272.007
scalar OsgEarthNet.uav[19] utilizationEnergyMission 130448.21924591
scalar OsgEarthNet.uav[19] utilizationEnergyMaintenance 87567.073566437
scalar OsgEarthNet.uav[19] utilizationEnergyCharge 217008.90820312
scalar OsgEarthNet.uav[19] utilizationEnergyOverdrawMission 0
scalar OsgEarthNet.uav[19] utilizationEnergyOverdrawMaintenance 0
scalar OsgEarthNet.uav[19] utilizationCountMissions 45
scalar OsgEarthNet.uav[19] utilizationCountManeuversMission 897
scalar OsgEarthNet.uav[19] utilizationCountManeuversMaintenance 90
scalar OsgEarthNet.uav[19] utilizationCountChargeState 45
scalar OsgEarthNet.uav[19] utilizationCountOverdrawnAfterMission 0
scalar OsgEarthNet.uav[19] utilizationCountIdleState 45
scalar OsgEarthNet.uav[19] utilizationFail 0
scalar OsgEarthNet.uav[19] simulationTime 259200
scalar OsgEarthNet.uav[20] utilizationSecMission 702.04634144488
scalar OsgEarthNet.uav[20] utilizationSecMaintenance 388.81560937695
scalar OsgEarthNet.uav[20] utilizationSecCharge 3850
scalar OsgEarthNet.uav[20] utilizationSecIdle 254259.13704918
scalar OsgEarthNet.uav[20] utilizationEnergyMission 3153.9090423584
scalar OsgEarthNet.uav[20] utilizationEnergyMaintenance 2048.1906356812
scalar OsgEarthNet.uav[20] utilizationEnergyCharge 5200
scalar OsgEarthNet.uav[20] utilizationEnergyOverdrawMission 0
scalar OsgEarthNet.uav[20] utilizationEnergyOverdrawMaintenance 2.0999565124512
scalar OsgEarthNet.uav[20] utilizationCountMissions 1
scalar OsgEarthNet.uav[20] utilizationCountManeuversMission 10
scalar OsgEarthNet.uav[20] utilizationCountManeuversMaintenance 2
scalar OsgEarthNet.uav[20] utilizationCountChargeState 1
scalar OsgEarthNet.uav[20] utilizationCountOverdrawnAfterMission 1
scalar OsgEarthNet.uav[20] utilizationCountIdleState 2
scalar OsgEarthNet.uav[20] utilizationFail 0
scalar OsgEarthNet.uav[20] simulationTime 259200
scalar OsgEarthNet.uav[21] utilizationSecMission 30042.845713606
scalar OsgEarthNet.uav[21] utilizationSecMaintenance 20294.079153638
scalar OsgEarthNet.uav[21] utilizationSecCharge 180101.07213276
scalar OsgEarthNet.uav[21] utilizationSecIdle 28762.002
scalar OsgEarthNet.uav[21] utilizationEnergyMission 144958.12442398
scalar OsgEarthNet.uav[21] utilizationEnergyMaintenance 93762.13186264
scalar OsgEarthNet.uav[21] utilizationEnergyCharge 238896.18994141
scalar OsgEarthNet.uav[21] utilizationEnergyOverdrawMission 0
scalar OsgEarthNet.uav[21] utilizationEnergyOverdrawMaintenance 313.98641967773
scalar OsgEarthNet.uav[21] utilizationCountMissions 49
scalar OsgEarthNet.uav[21] utilizationCountManeuversMission 899
scalar OsgEarthNet.uav[21] utilizationCountManeuversMaintenance 98
scalar OsgEarthNet.uav[21] utilizationCountChargeState 49
scalar OsgEarthNet.uav[21] utilizationCountOverdrawnAfterMission 1
scalar OsgEarthNet.uav[21] utilizationCountIdleState 49
scalar OsgEarthNet.uav[21] utilizationFail 0
scalar OsgEarthNet.uav[21] simulationTime 259200
scalar OsgEarthNet.uav[22] utilizationSecMission 26315.72753459
scalar OsgEarthNet.uav[22] utilizationSecMaintenance 20160.837222701
scalar OsgEarthNet.uav[22] utilizationSecCharge 165141.98128399
scalar OsgEarthNet.uav[22] utilizationSecIdle 47581.452958717
scalar OsgEarthNet.uav[22] utilizationEnergyMission 127985.54467392
scalar OsgEarthNet.uav[22] utilizationEnergyMaintenance 93712.462543488
scalar OsgEarthNet.uav[22] utilizationEnergyCharge 218254.7109375
scalar OsgEarthNet.uav[22] utilizationEnergyOverdrawMission 0
scalar OsgEarthNet.uav[22] utilizationEnergyOverdrawMaintenance 0
scalar OsgEarthNet.uav[22] utilizationCountMissions 46
scalar OsgEarthNet.uav[22] utilizationCountManeuversMission 838
scalar OsgEarthNet.uav[22] utilizationCountManeuversMaintenance 92
scalar OsgEarthNet.uav[22] utilizationCountChargeState 46
scalar OsgEarthNet.uav[22] utilizationCountOverdrawnAfterMission 0
scalar OsgEarthNet.uav[22] utilizationCountIdleState 46
scalar OsgEarthNet.uav[22] utilizationFail 0
scalar OsgEarthNet.uav[22] simulationTime 259200
scalar OsgEarthNet.uav[23] utilizationSecMission 29722.621251138
scalar OsgEarthNet.uav[23] utilizationSecMaintenance 20945.377748862
scalar OsgEarthNet.uav[23] utilizationSecCharge 180110
scalar OsgEarthNet.uav[23] utilizationSecIdle 28422
scalar OsgEarthNet.uav[23] utilizationEnergyMission 143404.7226742
scalar OsgEarthNet.uav[23] utilizationEnergyMaintenance 98493.696372986
scalar OsgEarthNet.uav[23] utilizationEnergyCharge 238436.02099609
scalar OsgEarthNet.uav[23] utilizationEnergyOverdrawMission 0
scalar OsgEarthNet.uav[23] utilizationEnergyOverdrawMaintenance 30.847770690918
scalar OsgEarthNet.uav[23] utilizationCountMissions 49
scalar OsgEarthNet.uav[23] utilizationCountManeuversMission 893
scalar OsgEarthNet.uav[23] utilizationCountManeuversMaintenance 98
scalar OsgEarthNet.uav[23] utilizationCountChargeState 49
scalar OsgEarthNet.uav[23] utilizationCountOverdrawnAfterMission 2
scalar OsgEarthNet.uav[23] utilizationCountIdleState 50
scalar OsgEarthNet.uav[23] utilizationFail 0
scalar OsgEarthNet.uav[23] simulationTime 259200
scalar OsgEarthNet.uav[24] utilizationSecMission 28997.611403564
scalar OsgEarthNet.uav[24] utilizationSecMaintenance 21569.919969859
scalar OsgEarthNet.uav[24] utilizationSecCharge 180750.46662658
scalar OsgEarthNet.uav[24] utilizationSecIdle 27882.001
scalar OsgEarthNet.uav[24] utilizationEnergyMission 141518.51648712
scalar OsgEarthNet.uav[24] utilizationEnergyMaintenance 100687.65428162
scalar OsgEarthNet.uav[24] utilizationEnergyCharge 239534.12670898
scalar OsgEarthNet.uav[24] utilizationEnergyOverdrawMission 0
scalar OsgEarthNet.uav[24] utilizationEnergyOverdrawMaintenance 0
scalar OsgEarthNet.uav[24] utilizationCountMissions 50
scalar OsgEarthNet.uav[24] utilizationCountManeuversMission 931
scalar OsgEarthNet.uav[24] utilizationCountManeuversMaintenance 100
scalar OsgEarthNet.uav[24] utilizationCountChargeState 50
scalar OsgEarthNet.uav[24] utilizationCountOverdrawnAfterMission 0
scalar OsgEarthNet.uav[24] utilizationCountIdleState 50
scalar OsgEarthNet.uav[24] utilizationFail 0
scalar OsgEarthNet.uav[24] simulationTime 259200
scalar OsgEarthNet.uav[25] utilizationSecMission 27057.634459749
scalar OsgEarthNet.uav[25] utilizationSecMaintenance 21563.18942984
scalar OsgEarthNet.uav[25] utilizationSecCharge 172620
scalar OsgEarthNet.uav[25] utilizationSecIdle 37959.175110411
scalar OsgEarthNet.uav[25] utilizationEnergyMission 132263.33304559
scalar OsgEarthNet.uav[25] utilizationEnergyMaintenance 100851.7232132
scalar OsgEarthNet.uav[25] utilizationEnergyCharge 228162.37353516
scalar OsgEarthNet.uav[25] utilizationEnergyOverdrawMission 0
scalar OsgEarthNet.uav[25] utilizationEnergyOverdrawMaintenance 62.77075958252
scalar OsgEarthNet.uav[25] utilizationCountMissions 47
scalar OsgEarthNet.uav[25] utilizationCountManeuversMission 845
scalar OsgEarthNet.uav[25] utilizationCountManeuversMaintenance 95
scalar OsgEarthNet.uav[25] utilizationCountChargeState 47
scalar OsgEarthNet.uav[25] utilizationCountOverdrawnAfterMission 2
scalar OsgEarthNet.uav[25] utilizationCountIdleState 48
scalar OsgEarthNet.uav[25] utilizationFail 0
scalar OsgEarthNet.uav[25] simulationTime 259200
scalar OsgEarthNet.uav[26] utilizationSecMission 698.84532193436
scalar OsgEarthNet.uav[26] utilizationSecMaintenance 323.03163670533
scalar OsgEarthNet.uav[26] utilizationSecCharge 3660
scalar OsgEarthNet.uav[26] utilizationSecIdle 254518.12204136
scalar OsgEarthNet.uav[26] utilizationEnergyMission 3278.0012359619
scalar OsgEarthNet.uav[26] utilizationEnergyMaintenance 1559.0007858276
scalar OsgEarthNet.uav[26] utilizationEnergyCharge 4837.0034179688
scalar OsgEarthNet.uav[26] utilizationEnergyOverdrawMission 0
scalar OsgEarthNet.uav[26] utilizationEnergyOverdrawMaintenance 0
scalar OsgEarthNet.uav[26] utilizationCountMissions 1
scalar OsgEarthNet.uav[26] utilizationCountManeuversMission 10
scalar OsgEarthNet.uav[26] utilizationCountManeuversMaintenance 2
scalar OsgEarthNet.uav[26] utilizationCountChargeState 1
scalar OsgEarthNet.uav[26] utilizationCountOverdrawnAfterMission 0
scalar OsgEarthNet.uav[26] utilizationCountIdleState 2
scalar OsgEarthNet.uav[26] utilizationFail 0
scalar OsgEarthNet.uav[26] simulationTime 259200
scalar OsgEarthNet.uav[27] utilizationSecMission 528.55000878666
scalar OsgEarthNet.uav[27] utilizationSecMaintenance 413.64453676047
scalar OsgEarthNet.uav[27] utilizationSecCharge 3360
scalar OsgEarthNet.uav[27] utilizationSecIdle 254897.80445445
scalar OsgEarthNet.uav[27] utilizationEnergyMission 2302.2090835571
scalar OsgEarthNet.uav[27] utilizationEnergyMaintenance 1993.6246566772
scalar OsgEarthNet.uav[27] utilizationEnergyCharge 4295.8295898438
scalar OsgEarthNet.uav[27] utilizationEnergyOverdrawMission 0
scalar OsgEarthNet.uav[27] utilizationEnergyOverdrawMaintenance 0
scalar OsgEarthNet.uav[27] utilizationCountMissions 1
scalar OsgEarthNet.uav[27] utilizationCountManeuversMission 10
scalar OsgEarthNet.uav[27] utilizationCountManeuversMaintenance 2
scalar OsgEarthNet.uav[27] utilizationCountChargeState 1
scalar OsgEarthNet.uav[27] utilizationCountOverdrawnAfterMission 0
scalar OsgEarthNet.uav[27] utilizationCountIdleState 2
scalar OsgEarthNet.uav[27] utilizationFail 0
scalar OsgEarthNet.uav[27] simulationTime 259200
scalar OsgEarthNet.uav[28] utilizationSecMission 28671.168431275
scalar OsgEarthNet.uav[28] utilizationSecMaintenance 21554.713586046
scalar OsgEarthNet.uav[28] utilizationSecCharge 178104.20484013
scalar OsgEarthNet.uav[28] utilizationSecIdle 30869.912142547
scalar OsgEarthNet.uav[28] utilizationEnergyMission 138334.7347908
scalar OsgEarthNet.uav[28] utilizationEnergyMaintenance 99967.808589935
scalar OsgEarthNet.uav[28] utilizationEnergyCharge 236307.859375
scalar OsgEarthNet.uav[28] utilizationEnergyOverdrawMission 0
scalar OsgEarthNet.uav[28] utilizationEnergyOverdrawMaintenance 0.39400959014893
scalar OsgEarthNet.uav[28] utilizationCountMissions 49
scalar OsgEarthNet.uav[28] utilizationCountManeuversMission 906
scalar OsgEarthNet.uav[28] utilizationCountManeuversMaintenance 98
scalar OsgEarthNet.uav[28] utilizationCountChargeState 49
scalar OsgEarthNet.uav[28] utilizationCountOverdrawnAfterMission 1
scalar OsgEarthNet.uav[28] utilizationCountIdleState 49
scalar OsgEarthNet.uav[28] utilizationFail 0
scalar OsgEarthNet.uav[28] simulationTime 259200
scalar OsgEarthNet.uav[29] utilizationSecMission 28167.654480725
scalar OsgEarthNet.uav[29] utilizationSecMaintenance 19410.339519275
scalar OsgEarthNet.uav[29] utilizationSecCharge 169320
scalar OsgEarthNet.uav[29] utilizationSecIdle 42302.005
scalar OsgEarthNet.uav[29] utilizationEnergyMission 135005.8905452
scalar OsgEarthNet.uav[29] utilizationEnergyMaintenance 90889.412536621
scalar OsgEarthNet.uav[29] utilizationEnergyCharge 224104.80273438
scalar OsgEarthNet.uav[29] utilizationEnergyOverdrawMission 0
scalar OsgEarthNet.uav[29] utilizationEnergyOverdrawMaintenance 47.695838928223
scalar OsgEarthNet.uav[29] utilizationCountMissions 46
scalar OsgEarthNet.uav[29] utilizationCountManeuversMission 851
scalar OsgEarthNet.uav[29] utilizationCountManeuversMaintenance 93
scalar OsgEarthNet.uav[29] utilizationCountChargeState 46
scalar OsgEarthNet.uav[29] utilizationCountOverdrawnAfterMission 2
scalar OsgEarthNet.uav[29] utilizationCountIdleState 47
scalar OsgEarthNet.uav[29] utilizationFail 0
scalar OsgEarthNet.uav[29] simulationTime 259200
scalar OsgEarthNet.uav[30] utilizationSecMission 26081.676864336
scalar OsgEarthNet.uav[30] utilizationSecMaintenance 21931.592458954
scalar OsgEarthNet.uav[30] utilizationSecCharge 172714.72567671
scalar OsgEarthNet.uav[30] utilizationSecIdle 38472.004
scalar OsgEarthNet.uav[30] utilizationEnergyMission 128307.24166489
scalar OsgEarthNet.uav[30] utilizationEnergyMaintenance 101980.3953476
scalar OsgEarthNet.uav[30] utilizationEnergyCharge 228329.71826172
scalar OsgEarthNet.uav[30] utilizationEnergyOverdrawMission 0
scalar OsgEarthNet.uav[30] utilizationEnergyOverdrawMaintenance 51.428482055664
scalar OsgEarthNet.uav[30] utilizationCountMissions 48
scalar OsgEarthNet.uav[30] utilizationCountManeuversMission 942
scalar OsgEarthNet.uav[30] utilizationCountManeuversMaintenance 96
scalar OsgEarthNet.uav[30] utilizationCountChargeState 48
scalar OsgEarthNet.uav[30] utilizationCountOverdrawnAfterMission 1
scalar OsgEarthNet.uav[30] utilizationCountIdleState 48
scalar OsgEarthNet.uav[30] utilizationFail 0
scalar OsgEarthNet.uav[30] simulationTime 259200
scalar OsgEarthNet.uav[31] utilizationSecMission 28562.016709044
scalar OsgEarthNet.uav[31] utilizationSecMaintenance 19831.556029733
scalar OsgEarthNet.uav[31] utilizationSecCharge 171620
scalar OsgEarthNet.uav[31] utilizationSecIdle 39186.426261223
scalar OsgEarthNet.uav[31] utilizationEnergyMission 140304.8119545
scalar OsgEarthNet.uav[31] utilizationEnergyMaintenance 92794.366584113
scalar OsgEarthNet.uav[31] utilizationEnergyCharge 226305.94165039
scalar OsgEarthNet.uav[31] utilizationEnergyOverdrawMission 0
scalar OsgEarthNet.uav[31] utilizationEnergyOverdrawMaintenance 0
scalar OsgEarthNet.uav[31] utilizationCountMissions 48
scalar OsgEarthNet.uav[31] utilizationCountManeuversMission 949
scalar OsgEarthNet.uav[31] utilizationCountManeuversMaintenance 96
scalar OsgEarthNet.uav[31] utilizationCountChargeState 47
scalar OsgEarthNet.uav[31] utilizationCountOverdrawnAfterMission 0
scalar OsgEarthNet.uav[31] utilizationCountIdleState 48
scalar OsgEarthNet.uav[31] utilizationFail 0
scalar OsgEarthNet.uav[31] simulationTime 259200
scalar OsgEarthNet.uav[32] utilizationSecMission 29963.547435883
scalar OsgEarthNet.uav[32] utilizationSecMaintenance 19242.640996954
scalar OsgEarthNet.uav[32] utilizationSecCharge 171903.23344618
scalar OsgEarthNet.uav[32] utilizationSecIdle 38090.577120981
scalar OsgEarthNet.uav[32] utilizationEnergyMission 143926.97227478
scalar OsgEarthNet.uav[32] utilizationEnergyMaintenance 87761.742324829
scalar OsgEarthNet.uav[32] utilizationEnergyCharge 226977.28942871
scalar OsgEarthNet.uav[32] utilizationEnergyOverdrawMission 0
scalar OsgEarthNet.uav[32] utilizationEnergyOverdrawMaintenance 482.02392578125
scalar OsgEarthNet.uav[32] utilizationCountMissions 48
scalar OsgEarthNet.uav[32] utilizationCountManeuversMission 858
scalar OsgEarthNet.uav[32] utilizationCountManeuversMaintenance 96
scalar OsgEarthNet.uav[32] utilizationCountChargeState 48
scalar OsgEarthNet.uav[32] utilizationCountOverdrawnAfterMission 1
scalar OsgEarthNet.uav[32] utilizationCountIdleState 48
scalar OsgEarthNet.uav[32] utilizationFail 0
scalar OsgEarthNet.uav[32] simulationTime 259200
scalar OsgEarthNet.uav[33] utilizationSecMission 7660.4094549565
scalar OsgEarthNet.uav[33] utilizationSecMaintenance 5126.3926113698
scalar OsgEarthNet.uav[33] utilizationSecCharge 47950
scalar OsgEarthNet.uav[33] utilizationSecIdle 198463.19693367
scalar OsgEarthNet.uav[33] utilizationEnergyMission 38041.91494751
scalar OsgEarthNet.uav[33] utilizationEnergyMaintenance 24420.211025238
scalar OsgEarthNet.uav[33] utilizationEnergyCharge 63305.883300781
scalar OsgEarthNet.uav[33] utilizationEnergyOverdrawMission 0
scalar OsgEarthNet.uav[33] utilizationEnergyOverdrawMaintenance 0
scalar OsgEarthNet.uav[33] utilizationCountMissions 13
scalar OsgEarthNet.uav[33] utilizationCountManeuversMission 330
scalar OsgEarthNet.uav[33] utilizationCountManeuversMaintenance 26
scalar OsgEarthNet.uav[33] utilizationCountChargeState 13
scalar OsgEarthNet.uav[33] utilizationCountOverdrawnAfterMission 0
scalar OsgEarthNet.uav[33] utilizationCountIdleState 14
scalar OsgEarthNet.uav[33] utilizationFail 0
scalar OsgEarthNet.uav[33] simulationTime 259200
scalar OsgEarthNet.uav[34] utilizationSecMission 440
scalar OsgEarthNet.uav[34] utilizationSecMaintenance 507.16988087142
scalar OsgEarthNet.uav[34] utilizationSecCharge 3630
scalar OsgEarthNet.uav[34] utilizationSecIdle 254622.82911913
scalar OsgEarthNet.uav[34] utilizationEnergyMission 2083.0980949402
scalar OsgEarthNet.uav[34] utilizationEnergyMaintenance 2397.8652458191
scalar OsgEarthNet.uav[34] utilizationEnergyCharge 4786.560546875
scalar OsgEarthNet.uav[34] utilizationEnergyOverdrawMission 0
scalar OsgEarthNet.uav[34] utilizationEnergyOverdrawMaintenance 0
scalar OsgEarthNet.uav[34] utilizationCountMissions 1
scalar OsgEarthNet.uav[34] utilizationCountManeuversMission 22
scalar OsgEarthNet.uav[34] utilizationCountManeuversMaintenance 2
scalar OsgEarthNet.uav[34] utilizationCountChargeState 1
scalar OsgEarthNet.uav[34] utilizationCountOverdrawnAfterMission 0
scalar OsgEarthNet.uav[34] utilizationCountIdleState 2
scalar OsgEarthNet.uav[34] utilizationFail 0
scalar OsgEarthNet.uav[34] simulationTime 259200
scalar OsgEarthNet.uav[35] utilizationSecMission 24288.784312922
scalar OsgEarthNet.uav[35] utilizationSecMaintenance 17237.820137655
scalar OsgEarthNet.uav[35] utilizationSecCharge 146833.76346285
scalar OsgEarthNet.uav[35] utilizationSecIdle 70839.631086569
scalar OsgEarthNet.uav[35] utilizationEnergyMission 116084.74031067
scalar OsgEarthNet.uav[35] utilizationEnergyMaintenance 80620.469551086
scalar OsgEarthNet.uav[35] utilizationEnergyCharge 194108.35253906
scalar OsgEarthNet.uav[35] utilizationEnergyOverdrawMission 0
scalar OsgEarthNet.uav[35] utilizationEnergyOverdrawMaintenance 0
scalar OsgEarthNet.uav[35] utilizationCountMissions 41
scalar OsgEarthNet.uav[35] utilizationCountManeuversMission 708
scalar OsgEarthNet.uav[35] utilizationCountManeuversMaintenance 82
scalar OsgEarthNet.uav[35] utilizationCountChargeState 41
scalar OsgEarthNet.uav[35] utilizationCountOverdrawnAfterMission 0
scalar OsgEarthNet.uav[35] utilizationCountIdleState 41
scalar OsgEarthNet.uav[35] utilizationFail 0
scalar OsgEarthNet.uav[35] simulationTime 259200
scalar OsgEarthNet.uav[36] utilizationSecMission 28341.943174111
scalar OsgEarthNet.uav[36] utilizationSecMaintenance 21772.758874583
scalar OsgEarthNet.uav[36] utilizationSecCharge 180039.34770828
scalar OsgEarthNet.uav[36] utilizationSecIdle 29045.94924303
scalar OsgEarthNet.uav[36] utilizationEnergyMission 137663.58834076
scalar OsgEarthNet.uav[36] utilizationEnergyMaintenance 101513.24874115
scalar OsgEarthNet.uav[36] utilizationEnergyCharge 237789.04785156
scalar OsgEarthNet.uav[36] utilizationEnergyOverdrawMission 0
scalar OsgEarthNet.uav[36] utilizationEnergyOverdrawMaintenance 97.308975219727
scalar OsgEarthNet.uav[36] utilizationCountMissions 49
scalar OsgEarthNet.uav[36] utilizationCountManeuversMission 865
scalar OsgEarthNet.uav[36] utilizationCountManeuversMaintenance 98
scalar OsgEarthNet.uav[36] utilizationCountChargeState 49
scalar OsgEarthNet.uav[36] utilizationCountOverdrawnAfterMission 1
scalar OsgEarthNet.uav[36] utilizationCountIdleState 49
scalar OsgEarthNet.uav[36] utilizationFail 0
scalar OsgEarthNet.uav[36] simulationTime 259200
scalar OsgEarthNet.uav[37] utilizationSecMission 25382.156099335
scalar OsgEarthNet.uav[37] utilizationSecMaintenance 18940.013969251
scalar OsgEarthNet.uav[37] utilizationSecCharge 161621.40167019
scalar OsgEarthNet.uav[37] utilizationSecIdle 53256.427261223
scalar OsgEarthNet.uav[37] utilizationEnergyMission 124067.50073242
scalar OsgEarthNet.uav[37] utilizationEnergyMaintenance 89575.322143555
scalar OsgEarthNet.uav[37] utilizationEnergyCharge 213575.47802734
scalar OsgEarthNet.uav[37] utilizationEnergyOverdrawMission 0
scalar OsgEarthNet.uav[37] utilizationEnergyOverdrawMaintenance 0
scalar OsgEarthNet.uav[37] utilizationCountMissions 44
scalar OsgEarthNet.uav[37] utilizationCountManeuversMission 800
scalar OsgEarthNet.uav[37] utilizationCountManeuversMaintenance 88
scalar OsgEarthNet.uav[37] utilizationCountChargeState 44
scalar OsgEarthNet.uav[37] utilizationCountOverdrawnAfterMission 0
scalar OsgEarthNet.uav[37] utilizationCountIdleState 44
scalar OsgEarthNet.uav[37] utilizationFail 0
scalar OsgEarthNet.uav[37] simulationTime 259200
scalar OsgEarthNet.uav[38] utilizationSecMission 18652.297111918
scalar OsgEarthNet.uav[38] utilizationSecMaintenance 14127.547976523
scalar OsgEarthNet.uav[38] utilizationSecCharge 116849.44585433
scalar OsgEarthNet.uav[38] utilizationSecIdle 109570.70805723
scalar OsgEarthNet.uav[38] utilizationEnergyMission 89590.36082077
scalar OsgEarthNet.uav[38] utilizationEnergyMaintenance 65510.056850433
scalar OsgEarthNet.uav[38] utilizationEnergyCharge 155472.76269531
scalar OsgEarthNet.uav[38] utilizationEnergyOverdrawMission 0
scalar OsgEarthNet.uav[38] utilizationEnergyOverdrawMaintenance 22.00159072876
scalar OsgEarthNet.uav[38] utilizationCountMissions 32
scalar OsgEarthNet.uav[38] utilizationCountManeuversMission 551
scalar OsgEarthNet.uav[38] utilizationCountManeuversMaintenance 64
scalar OsgEarthNet.uav[38] utilizationCountChargeState 32
scalar OsgEarthNet.uav[38] utilizationCountOverdrawnAfterMission 1
scalar OsgEarthNet.uav[38] utilizationCountIdleState 32
scalar OsgEarthNet.uav[38] utilizationFail 0
scalar OsgEarthNet.uav[38] simulationTime 259200
scalar OsgEarthNet.uav[39] utilizationSecMission 26973.264212203
scalar OsgEarthNet.uav[39] utilizationSecMaintenance 19628.321063794
scalar OsgEarthNet.uav[39] utilizationSecCharge 168514.39545687
scalar OsgEarthNet.uav[39] utilizationSecIdle 44084.018267135
scalar OsgEarthNet.uav[39] utilizationEnergyMission 133133.07494736
scalar OsgEarthNet.uav[39] utilizationEnergyMaintenance 92056.388801575
scalar OsgEarthNet.uav[39] utilizationEnergyCharge 223620.06933594
scalar OsgEarthNet.uav[39] utilizationEnergyOverdrawMission 0
scalar OsgEarthNet.uav[39] utilizationEnergyOverdrawMaintenance 21.37982749939
scalar OsgEarthNet.uav[39] utilizationCountMissions 46
scalar OsgEarthNet.uav[39] utilizationCountManeuversMission 897
scalar OsgEarthNet.uav[39] utilizationCountManeuversMaintenance 92
scalar OsgEarthNet.uav[39] utilizationCountChargeState 46
scalar OsgEarthNet.uav[39] utilizationCountOverdrawnAfterMission 1
scalar OsgEarthNet.uav[39] utilizationCountIdleState 46
scalar OsgEarthNet.uav[39] utilizationFail 0
scalar OsgEarthNet.uav[39] simulationTime 259200
scalar OsgEarthNet.uav[40] utilizationSecMission 22574.799477024
scalar OsgEarthNet.uav[40] utilizationSecMaintenance 17664.517766454
scalar OsgEarthNet.uav[40] utilizationSecCharge 143778.67275652
scalar OsgEarthNet.uav[40] utilizationSecIdle 75182.009
scalar OsgEarthNet.uav[40] utilizationEnergyMission 110038.2517395
scalar OsgEarthNet.uav[40] utilizationEnergyMaintenance 82471.622104645
scalar OsgEarthNet.uav[40] utilizationEnergyCharge 190237.23413086
scalar OsgEarthNet.uav[40] utilizationEnergyOverdrawMission 0
scalar OsgEarthNet.uav[40] utilizationEnergyOverdrawMaintenance 0
scalar OsgEarthNet.uav[40] utilizationCountMissions 40
scalar OsgEarthNet.uav[40] utilizationCountManeuversMission 753
scalar OsgEarthNet.uav[40] utilizationCountManeuversMaintenance 80
scalar OsgEarthNet.uav[40] utilizationCountChargeState 40
scalar OsgEarthNet.uav[40] utilizationCountOverdrawnAfterMission 0
scalar OsgEarthNet.uav[40] utilizationCountIdleState 40
scalar OsgEarthNet.uav[40] utilizationFail 0
scalar OsgEarthNet.uav[40] simulationTime 259200
scalar OsgEarthNet.uav[41] utilizationSecMission 26145.89915061
scalar OsgEarthNet.uav[41] utilizationSecMaintenance 20060.093589504
scalar OsgEarthNet.uav[41] utilizationSecCharge 165040
scalar OsgEarthNet.uav[41] utilizationSecIdle 47954.006259886
scalar OsgEarthNet.uav[41] utilizationEnergyMission 125380.09728387
scalar OsgEarthNet.uav[41] utilizationEnergyMaintenance 94216.517784119
scalar OsgEarthNet.uav[41] utilizationEnergyCharge 217933.96289062
scalar OsgEarthNet.uav[41] utilizationEnergyOverdrawMission 0
scalar OsgEarthNet.uav[41] utilizationEnergyOverdrawMaintenance 0
scalar OsgEarthNet.uav[41] utilizationCountMissions 45
scalar OsgEarthNet.uav[41] utilizationCountManeuversMission 718
scalar OsgEarthNet.uav[41] utilizationCountManeuversMaintenance 91
scalar OsgEarthNet.uav[41] utilizationCountChargeState 45
scalar OsgEarthNet.uav[41] utilizationCountOverdrawnAfterMission 0
scalar OsgEarthNet.uav[41] utilizationCountIdleState 46
scalar OsgEarthNet.uav[41] utilizationFail 0
scalar OsgEarthNet.uav[41] simulationTime 259200
scalar OsgEarthNet.uav[42] utilizationSecMission 25905.373401326
scalar OsgEarthNet.uav[42] utilizationSecMaintenance 19990.70142434
scalar OsgEarthNet.uav[42] utilizationSecCharge 165510
scalar OsgEarthNet.uav[42] utilizationSecIdle 47793.924174334
scalar OsgEarthNet.uav[42] utilizationEnergyMission 126280.42834854
scalar OsgEarthNet.uav[42] utilizationEnergyMaintenance 92361.813976288
scalar OsgEarthNet.uav[42] utilizationEnergyCharge 218833.08837891
scalar OsgEarthNet.uav[42] utilizationEnergyOverdrawMission 0
scalar OsgEarthNet.uav[42] utilizationEnergyOverdrawMaintenance 0
scalar OsgEarthNet.uav[42] utilizationCountMissions 45
scalar OsgEarthNet.uav[42] utilizationCountManeuversMission 880
scalar OsgEarthNet.uav[42] utilizationCountManeuversMaintenance 90
scalar OsgEarthNet.uav[42] utilizationCountChargeState 45
scalar OsgEarthNet.uav[42] utilizationCountOverdrawnAfterMission 0
scalar OsgEarthNet.uav[42] utilizationCountIdleState 46
scalar OsgEarthNet.uav[42] utilizationFail 0
scalar OsgEarthNet.uav[42] simulationTime 259200
scalar OsgEarthNet.uav[43] utilizationSecMission 1080
scalar OsgEarthNet.uav[43] utilizationSecMaintenance 860.88749332967
scalar OsgEarthNet.uav[43] utilizationSecCharge 7520
scalar OsgEarthNet.uav[43] utilizationSecIdle 249739.11150667
scalar OsgEarthNet.uav[43] utilizationEnergyMission 5325.9403457642
scalar OsgEarthNet.uav[43] utilizationEnergyMaintenance 4170.2848243713
scalar OsgEarthNet.uav[43] utilizationEnergyCharge 9971.9716796875
scalar OsgEarthNet.uav[43] utilizationEnergyOverdrawMission 0
scalar OsgEarthNet.uav[43] utilizationEnergyOverdrawMaintenance 0
scalar OsgEarthNet.uav[43] utilizationCountMissions 2
scalar OsgEarthNet.uav[43] utilizationCountManeuversMission 54
scalar OsgEarthNet.uav[43] utilizationCountManeuversMaintenance 4
scalar OsgEarthNet.uav[43] utilizationCountChargeState 2
scalar OsgEarthNet.uav[43] utilizationCountOverdrawnAfterMission 0
scalar OsgEarthNet.uav[43] utilizationCountIdleState 3
scalar OsgEarthNet.uav[43] utilizationFail 0
scalar OsgEarthNet.uav[43] simulationTime 259200
scalar OsgEarthNet.uav[44] utilizationSecMission 28679.47508081
scalar OsgEarthNet.uav[44] utilizationSecMaintenance 20451.369851494
scalar OsgEarthNet.uav[44] utilizationSecCharge 176787.1500677
scalar OsgEarthNet.uav[44] utilizationSecIdle 33282.004
scalar OsgEarthNet.uav[44] utilizationEnergyMission 142129.65451431
scalar OsgEarthNet.uav[44] utilizationEnergyMaintenance 94962.089855194
scalar OsgEarthNet.uav[44] utilizationEnergyCharge 233642.19592285
scalar OsgEarthNet.uav[44] utilizationEnergyOverdrawMission 0
scalar OsgEarthNet.uav[44] utilizationEnergyOverdrawMaintenance 0
scalar OsgEarthNet.uav[44] utilizationCountMissions 49
scalar OsgEarthNet.uav[44] utilizationCountManeuversMission 1052
scalar OsgEarthNet.uav[44] utilizationCountManeuversMaintenance 98
scalar OsgEarthNet.uav[44] utilizationCountChargeState 49
scalar OsgEarthNet.uav[44] utilizationCountOverdrawnAfterMission 0
scalar OsgEarthNet.uav[44] utilizationCountIdleState 49
scalar OsgEarthNet.uav[44] utilizationFail 0
scalar OsgEarthNet.uav[44] simulationTime 259200
scalar OsgEarthNet.uav[45] utilizationSecMission 1731.8559862542
scalar OsgEarthNet.uav[45] utilizationSecMaintenance 306.96506786881
scalar OsgEarthNet.uav[45] utilizationSecCharge 7440
scalar OsgEarthNet.uav[45] utilizationSecIdle 249721.17794588
scalar OsgEarthNet.uav[45] utilizationEnergyMission 8049.8603668213
scalar OsgEarthNet.uav[45] utilizationEnergyMaintenance 1493.6358566284
scalar OsgEarthNet.uav[45] utilizationEnergyCharge 9886.9560546875
scalar OsgEarthNet.uav[45] utilizationEnergyOverdrawMission 0
scalar OsgEarthNet.uav[45] utilizationEnergyOverdrawMaintenance 0
scalar OsgEarthNet.uav[45] utilizationCountMissions 2
scalar OsgEarthNet.uav[45] utilizationCountManeuversMission 27
scalar OsgEarthNet.uav[45] utilizationCountManeuversMaintenance 4
scalar OsgEarthNet.uav[45] utilizationCountChargeState 2
scalar OsgEarthNet.uav[45] utilizationCountOverdrawnAfterMission 0
scalar OsgEarthNet.uav[45] utilizationCountIdleState 3
scalar OsgEarthNet.uav[45] utilizationFail 0
scalar OsgEarthNet.uav[45] simulationTime 259200
scalar OsgEarthNet.uav[46] utilizationSecMission 29541.144469358
scalar OsgEarthNet.uav[46] utilizationSecMaintenance 21751.674113009
scalar OsgEarthNet.uav[46] utilizationSecCharge 181565.18041763
scalar OsgEarthNet.uav[46] utilizationSecIdle 26342
scalar OsgEarthNet.uav[46] utilizationEnergyMission 139491.45838928
scalar OsgEarthNet.uav[46] utilizationEnergyMaintenance 101421.5440979
scalar OsgEarthNet.uav[46] utilizationEnergyCharge 240681.44628906
scalar OsgEarthNet.uav[46] utilizationEnergyOverdrawMission 0
scalar OsgEarthNet.uav[46] utilizationEnergyOverdrawMaintenance 0
scalar OsgEarthNet.uav[46] utilizationCountMissions 50
scalar OsgEarthNet.uav[46] utilizationCountManeuversMission 814
scalar OsgEarthNet.uav[46] utilizationCountManeuversMaintenance 100
scalar OsgEarthNet.uav[46] utilizationCountChargeState 50
scalar OsgEarthNet.uav[46] utilizationCountOverdrawnAfterMission 0
scalar OsgEarthNet.uav[46] utilizationCountIdleState 50
scalar OsgEarthNet.uav[46] utilizationFail 0
scalar OsgEarthNet.uav[46] simulationTime 259200
scalar OsgEarthNet.uav[47] utilizationSecMission 11561.669682502
scalar OsgEarthNet.uav[47] utilizationSecMaintenance 8667.9127790881
scalar OsgEarthNet.uav[47] utilizationSecCharge 72496.75135844
scalar OsgEarthNet.uav[47] utilizationSecIdle 166473.66517997
scalar OsgEarthNet.uav[47] utilizationEnergyMission 56620.694190979
scalar OsgEarthNet.uav[47] utilizationEnergyMaintenance 40697.202533722
scalar OsgEarthNet.uav[47] utilizationEnergyCharge 97272.980712891
scalar OsgEarthNet.uav[47] utilizationEnergyOverdrawMission 0
scalar OsgEarthNet.uav[47] utilizationEnergyOverdrawMaintenance 93.27294921875
scalar OsgEarthNet.uav[47] utilizationCountMissions 20
scalar OsgEarthNet.uav[47] utilizationCountManeuversMission 343
scalar OsgEarthNet.uav[47] utilizationCountManeuversMaintenance 40
scalar OsgEarthNet.uav[47] utilizationCountChargeState 20
scalar OsgEarthNet.uav[47] utilizationCountOverdrawnAfterMission 1
scalar OsgEarthNet.uav[47] utilizationCountIdleState 20
scalar OsgEarthNet.uav[47] utilizationFail 0
scalar OsgEarthNet.uav[47] simulationTime 259200
scalar OsgEarthNet.uav[48] utilizationSecMission 28972.254544269
scalar OsgEarthNet.uav[48] utilizationSecMaintenance 21153.157381433
scalar OsgEarthNet.uav[48] utilizationSecCharge 181650
scalar OsgEarthNet.uav[48] utilizationSecIdle 27424.587074298
scalar OsgEarthNet.uav[48] utilizationEnergyMission 140926.92621072
scalar OsgEarthNet.uav[48] utilizationEnergyMaintenance 97113.429111481
scalar OsgEarthNet.uav[48] utilizationEnergyCharge 239151.40551758
scalar OsgEarthNet.uav[48] utilizationEnergyOverdrawMission 0
scalar OsgEarthNet.uav[48] utilizationEnergyOverdrawMaintenance 0
scalar OsgEarthNet.uav[48] utilizationCountMissions 50
scalar OsgEarthNet.uav[48] utilizationCountManeuversMission 977
scalar OsgEarthNet.uav[48] utilizationCountManeuversMaintenance 99
scalar OsgEarthNet.uav[48] utilizationCountChargeState 50
scalar OsgEarthNet.uav[48] utilizationCountOverdrawnAfterMission 0
scalar OsgEarthNet.uav[48] utilizationCountIdleState 51
scalar OsgEarthNet.uav[48] utilizationFail 0
scalar OsgEarthNet.uav[48] simulationTime 259200
scalar OsgEarthNet.uav[49] utilizationSecMission 28408.221129975
scalar OsgEarthNet.uav[49] utilizationSecMaintenance 21299.996568577
scalar OsgEarthNet.uav[49] utilizationSecCharge 178729.77930145
scalar OsgEarthNet.uav[49] utilizationSecIdle 30762.002
scalar OsgEarthNet.uav[49] utilizationEnergyMission 138904.78293991
scalar OsgEarthNet.uav[49] utilizationEnergyMaintenance 99246.98859787
scalar OsgEarthNet.uav[49] utilizationEnergyCharge 237305.6574707
scalar OsgEarthNet.uav[49] utilizationEnergyOverdrawMission 0
scalar OsgEarthNet.uav[49] utilizationEnergyOverdrawMaintenance 0
scalar OsgEarthNet.uav[49] utilizationCountMissions 49
scalar OsgEarthNet.uav[49] utilizationCountManeuversMission 937
scalar OsgEarthNet.uav[49] utilizationCountManeuversMaintenance 98
scalar OsgEarthNet.uav[49] utilizationCountChargeState 49
scalar OsgEarthNet.uav[49] utilizationCountOverdrawnAfterMission 0
scalar OsgEarthNet.uav[49] utilizationCountIdleState 49
scalar OsgEarthNet.uav[49] utilizationFail 0
scalar OsgEarthNet.uav[49] simulationTime 259200
scalar OsgEarthNet.uav[50] utilizationSecMission 18372.303053289
scalar OsgEarthNet.uav[50] utilizationSecMaintenance 12345.640188041
scalar OsgEarthNet.uav[50] utilizationSecCharge 109860
scalar OsgEarthNet.uav[50] utilizationSecIdle 118622.05575867
scalar OsgEarthNet.uav[50] utilizationEnergyMission 89495.389984131
scalar OsgEarthNet.uav[50] utilizationEnergyMaintenance 56590.137905121
scalar OsgEarthNet.uav[50] utilizationEnergyCharge 145147.50927734
scalar OsgEarthNet.uav[50] utilizationEnergyOverdrawMission 0
scalar OsgEarthNet.uav[50] utilizationEnergyOverdrawMaintenance 49.246906280518
scalar OsgEarthNet.uav[50] utilizationCountMissions 30
scalar OsgEarthNet.uav[50] utilizationCountManeuversMission 563
scalar OsgEarthNet.uav[50] utilizationCountManeuversMaintenance 60
scalar OsgEarthNet.uav[50] utilizationCountChargeState 30
scalar OsgEarthNet.uav[50] utilizationCountOverdrawnAfterMission 2
scalar OsgEarthNet.uav[50] utilizationCountIdleState 31
scalar OsgEarthNet.uav[50] utilizationFail 0
scalar OsgEarthNet.uav[50] simulationTime 259200
scalar OsgEarthNet.uav[51] utilizationSecMission 2937.6751360325
scalar OsgEarthNet.uav[51] utilizationSecMaintenance 2357.5348941515
scalar OsgEarthNet.uav[51] utilizationSecCharge 18390
scalar OsgEarthNet.uav[51] utilizationSecIdle 235514.78896982
scalar OsgEarthNet.uav[51] utilizationEnergyMission 13673.277141571
scalar OsgEarthNet.uav[51] utilizationEnergyMaintenance 11107.101863861
scalar OsgEarthNet.uav[51] utilizationEnergyCharge 24311.874023438
scalar OsgEarthNet.uav[51] utilizationEnergyOverdrawMission 0
scalar OsgEarthNet.uav[51] utilizationEnergyOverdrawMaintenance 0
scalar OsgEarthNet.uav[51] utilizationCountMissions 5
scalar OsgEarthNet.uav[51] utilizationCountManeuversMission 66
scalar OsgEarthNet.uav[51] utilizationCountManeuversMaintenance 10
scalar OsgEarthNet.uav[51] utilizationCountChargeState 5
scalar OsgEarthNet.uav[51] utilizationCountOverdrawnAfterMission 0
scalar OsgEarthNet.uav[51] utilizationCountIdleState 6
scalar OsgEarthNet.uav[51] utilizationFail 0
scalar OsgEarthNet.uav[51] simulationTime 259200
scalar OsgEarthNet.uav[52] utilizationSecMission 26856.285166601
scalar OsgEarthNet.uav[52] utilizationSecMaintenance 18673.664538532
scalar OsgEarthNet.uav[52] utilizationSecCharge 162033.69907405
scalar OsgEarthNet.uav[52] utilizationSecIdle 51636.350220821
scalar OsgEarthNet.uav[52] utilizationEnergyMission 128151.8527565
scalar OsgEarthNet.uav[52] utilizationEnergyMaintenance 87624.41425705
scalar OsgEarthNet.uav[52] utilizationEnergyCharge 214935.8984375
scalar OsgEarthNet.uav[52] utilizationEnergyOverdrawMission 0
scalar OsgEarthNet.uav[52] utilizationEnergyOverdrawMaintenance 122.37411499023
scalar OsgEarthNet.uav[52] utilizationCountMissions 44
scalar OsgEarthNet.uav[52] utilizationCountManeuversMission 738
scalar OsgEarthNet.uav[52] utilizationCountManeuversMaintenance 88
scalar OsgEarthNet.uav[52] utilizationCountChargeState 44
scalar OsgEarthNet.uav[52] utilizationCountOverdrawnAfterMission 1
scalar OsgEarthNet.uav[52] utilizationCountIdleState 44
scalar OsgEarthNet.uav[52] utilizationFail 0
scalar OsgEarthNet.uav[52] simulationTime 259200
scalar OsgEarthNet.uav[53] utilizationSecMission 10673.592186786
scalar OsgEarthNet.uav[53] utilizationSecMaintenance 7733.2194587696
scalar OsgEarthNet.uav[53] utilizationSecCharge 65980
scalar OsgEarthNet.uav[53] utilizationSecIdle 174813.18735444
scalar OsgEarthNet.uav[53] utilizationEnergyMission 51904.856414795
scalar OsgEarthNet.uav[53] utilizationEnergyMaintenance 35144.486778259
scalar OsgEarthNet.uav[53] utilizationEnergyCharge 87247.866210938
scalar OsgEarthNet.uav[53] utilizationEnergyOverdrawMission 0
scalar OsgEarthNet.uav[53] utilizationEnergyOverdrawMaintenance 0
scalar OsgEarthNet.uav[53] utilizationCountMissions 18
scalar OsgEarthNet.uav[53] utilizationCountManeuversMission 314
scalar OsgEarthNet.uav[53] utilizationCountManeuversMaintenance 36
scalar OsgEarthNet.uav[53] utilizationCountChargeState 18
scalar OsgEarthNet.uav[53] utilizationCountOverdrawnAfterMission 0
scalar OsgEarthNet.uav[53] utilizationCountIdleState 19
scalar OsgEarthNet.uav[53] utilizationFail 0
scalar OsgEarthNet.uav[53] simulationTime 259200
scalar OsgEarthNet.uav[54] utilizationSecMission 11815.429795737
scalar OsgEarthNet.uav[54] utilizationSecMaintenance 9270.5585732669
scalar OsgEarthNet.uav[54] utilizationSecCharge 73280
scalar OsgEarthNet.uav[54] utilizationSecIdle 164834.010631
scalar OsgEarthNet.uav[54] utilizationEnergyMission 58634.450657436
scalar OsgEarthNet.uav[54] utilizationEnergyMaintenance 43154.614650726
scalar OsgEarthNet.uav[54] utilizationEnergyCharge 96885.259765625
scalar OsgEarthNet.uav[54] utilizationEnergyOverdrawMission 0
scalar OsgEarthNet.uav[54] utilizationEnergyOverdrawMaintenance 0
scalar OsgEarthNet.uav[54] utilizationCountMissions 20
scalar OsgEarthNet.uav[54] utilizationCountManeuversMission 418
scalar OsgEarthNet.uav[54] utilizationCountManeuversMaintenance 41
scalar OsgEarthNet.uav[54] utilizationCountChargeState 20
scalar OsgEarthNet.uav[54] utilizationCountOverdrawnAfterMission 0
scalar OsgEarthNet.uav[54] utilizationCountIdleState 21
scalar OsgEarthNet.uav[54] utilizationFail 0
scalar OsgEarthNet.uav[54] simulationTime 259200
scalar OsgEarthNet.uav[55] utilizationSecMission 23957.387650499
scalar OsgEarthNet.uav[55] utilizationSecMaintenance 20313.377418342
scalar OsgEarthNet.uav[55] utilizationSecCharge 158099.31878861
scalar OsgEarthNet.uav[55] utilizationSecIdle 56829.915142547
scalar OsgEarthNet.uav[55] utilizationEnergyMission 116028.1527977
scalar OsgEarthNet.uav[55] utilizationEnergyMaintenance 94081.160179138
scalar OsgEarthNet.uav[55] utilizationEnergyCharge 210054.27246094
scalar OsgEarthNet.uav[55] utilizationEnergyOverdrawMission 0
scalar OsgEarthNet.uav[55] utilizationEnergyOverdrawMaintenance 10.071333885193
scalar OsgEarthNet.uav[55] utilizationCountMissions 43
scalar OsgEarthNet.uav[55] utilizationCountManeuversMission 690
scalar OsgEarthNet.uav[55] utilizationCountManeuversMaintenance 86
scalar OsgEarthNet.uav[55] utilizationCountChargeState 43
scalar OsgEarthNet.uav[55] utilizationCountOverdrawnAfterMission 1
scalar OsgEarthNet.uav[55] utilizationCountIdleState 43
scalar OsgEarthNet.uav[55] utilizationFail 0
scalar OsgEarthNet.uav[55] simulationTime 259200
scalar OsgEarthNet.uav[56] utilizationSecMission 28427.809538031
scalar OsgEarthNet.uav[56] utilizationSecMaintenance 20960.186461969
scalar OsgEarthNet.uav[56] utilizationSecCharge 176380
scalar OsgEarthNet.uav[56] utilizationSecIdle 33432.003
scalar OsgEarthNet.uav[56] utilizationEnergyMission 139349.04707478
scalar OsgEarthNet.uav[56] utilizationEnergyMaintenance 96746.273830414
scalar OsgEarthNet.uav[56] utilizationEnergyCharge 232835.32421875
scalar OsgEarthNet.uav[56] utilizationEnergyOverdrawMission 0
scalar OsgEarthNet.uav[56] utilizationEnergyOverdrawMaintenance 0
scalar OsgEarthNet.uav[56] utilizationCountMissions 48
scalar OsgEarthNet.uav[56] utilizationCountManeuversMission 924
scalar OsgEarthNet.uav[56] utilizationCountManeuversMaintenance 97
scalar OsgEarthNet.uav[56] utilizationCountChargeState 48
scalar OsgEarthNet.uav[56] utilizationCountOverdrawnAfterMission 0
scalar OsgEarthNet.uav[56] utilizationCountIdleState 48
scalar OsgEarthNet.uav[56] utilizationFail 0
scalar OsgEarthNet.uav[56] simulationTime 259200
scalar OsgEarthNet.uav[57] utilizationSecMission 26072.5725105
scalar OsgEarthNet.uav[57] utilizationSecMaintenance 19916.900698083
scalar OsgEarthNet.uav[57] utilizationSecCharge 164413.98027055
scalar OsgEarthNet.uav[57] utilizationSecIdle 48796.545520867
scalar OsgEarthNet.uav[57] utilizationEnergyMission 126592.86709595
scalar OsgEarthNet.uav[57] utilizationEnergyMaintenance 91944.77973175
scalar OsgEarthNet.uav[57] utilizationEnergyCharge 218736.41894531
scalar OsgEarthNet.uav[57] utilizationEnergyOverdrawMission 0
scalar OsgEarthNet.uav[57] utilizationEnergyOverdrawMaintenance 0
scalar OsgEarthNet.uav[57] utilizationCountMissions 45
scalar OsgEarthNet.uav[57] utilizationCountManeuversMission 862
scalar OsgEarthNet.uav[57] utilizationCountManeuversMaintenance 90
scalar OsgEarthNet.uav[57] utilizationCountChargeState 45
scalar OsgEarthNet.uav[57] utilizationCountOverdrawnAfterMission 0
scalar OsgEarthNet.uav[57] utilizationCountIdleState 44
scalar OsgEarthNet.uav[57] utilizationFail 0
scalar OsgEarthNet.uav[57] simulationTime 259200
scalar OsgEarthNet.uav[58] utilizationSecMission 18936.634494472
scalar OsgEarthNet.uav[58] utilizationSecMaintenance 15251.362505528
scalar OsgEarthNet.uav[58] utilizationSecCharge 120100
scalar OsgEarthNet.uav[58] utilizationSecIdle 104912.002
scalar OsgEarthNet.uav[58] utilizationEnergyMission 92516.961135864
scalar OsgEarthNet.uav[58] utilizationEnergyMaintenance 70786.593421918
scalar OsgEarthNet.uav[58] utilizationEnergyCharge 158253.96435547
scalar OsgEarthNet.uav[58] utilizationEnergyOverdrawMission 0
scalar OsgEarthNet.uav[58] utilizationEnergyOverdrawMaintenance 0
scalar OsgEarthNet.uav[58] utilizationCountMissions 34
scalar OsgEarthNet.uav[58] utilizationCountManeuversMission 664
scalar OsgEarthNet.uav[58] utilizationCountManeuversMaintenance 68
scalar OsgEarthNet.uav[58] utilizationCountChargeState 33
scalar OsgEarthNet.uav[58] utilizationCountOverdrawnAfterMission 0
scalar OsgEarthNet.uav[58] utilizationCountIdleState 33
scalar OsgEarthNet.uav[58] utilizationFail 0
scalar OsgEarthNet.uav[58] simulationTime 259200
scalar OsgEarthNet.uav[59] utilizationSecMission 19776.339218097
scalar OsgEarthNet.uav[59] utilizationSecMaintenance 17646.401128694
scalar OsgEarthNet.uav[59] utilizationSecCharge 131955.18359782
scalar OsgEarthNet.uav[59] utilizationSecIdle 89822.075055386
scalar OsgEarthNet.uav[59] utilizationEnergyMission 96183.06634903
scalar OsgEarthNet.uav[59] utilizationEnergyMaintenance 81220.075012207
scalar OsgEarthNet.uav[59] utilizationEnergyCharge 175326.74151611
scalar OsgEarthNet.uav[59] utilizationEnergyOverdrawMission 0
scalar OsgEarthNet.uav[59] utilizationEnergyOverdrawMaintenance 0
scalar OsgEarthNet.uav[59] utilizationCountMissions 37
scalar OsgEarthNet.uav[59] utilizationCountManeuversMission 639
scalar OsgEarthNet.uav[59] utilizationCountManeuversMaintenance 74
scalar OsgEarthNet.uav[59] utilizationCountChargeState 37
scalar OsgEarthNet.uav[59] utilizationCountOverdrawnAfterMission 0
scalar OsgEarthNet.uav[59] utilizationCountIdleState 35
scalar OsgEarthNet.uav[59] utilizationFail 0
scalar OsgEarthNet.uav[59] simulationTime 259200
scalar OsgEarthNet.uav[60] utilizationSecMission 23576.586258196
scalar OsgEarthNet.uav[60] utilizationSecMaintenance 19981.159836599
scalar OsgEarthNet.uav[60] utilizationSecCharge 152821.30264954
scalar OsgEarthNet.uav[60] utilizationSecIdle 62820.950255665
scalar OsgEarthNet.uav[60] utilizationEnergyMission 114407.03136063
scalar OsgEarthNet.uav[60] utilizationEnergyMaintenance 92499.364997864
scalar OsgEarthNet.uav[60] utilizationEnergyCharge 201828.20135498
scalar OsgEarthNet.uav[60] utilizationEnergyOverdrawMission 0
scalar OsgEarthNet.uav[60] utilizationEnergyOverdrawMaintenance 0
scalar OsgEarthNet.uav[60] utilizationCountMissions 43
scalar OsgEarthNet.uav[60] utilizationCountManeuversMission 706
scalar OsgEarthNet.uav[60] utilizationCountManeuversMaintenance 86
scalar OsgEarthNet.uav[60] utilizationCountChargeState 43
scalar OsgEarthNet.uav[60] utilizationCountOverdrawnAfterMission 0
scalar OsgEarthNet.uav[60] utilizationCountIdleState 41
scalar OsgEarthNet.uav[60] utilizationFail 0
scalar OsgEarthNet.uav[60] simulationTime 259200
scalar OsgEarthNet.uav[61] utilizationSecMission 28225.867852063
scalar OsgEarthNet.uav[61] utilizationSecMaintenance 20449.681699091
scalar OsgEarthNet.uav[61] utilizationSecCharge 171280.69245603
scalar OsgEarthNet.uav[61] utilizationSecIdle 39243.756992816
scalar OsgEarthNet.uav[61] utilizationEnergyMission 133871.14157867
scalar OsgEarthNet.uav[61] utilizationEnergyMaintenance 96158.962345123
scalar OsgEarthNet.uav[61] utilizationEnergyCharge 226875.57897949
scalar OsgEarthNet.uav[61] utilizationEnergyOverdrawMission 0
scalar OsgEarthNet.uav[61] utilizationEnergyOverdrawMaintenance 0
scalar OsgEarthNet.uav[61] utilizationCountMissions 48
scalar OsgEarthNet.uav[61] utilizationCountManeuversMission 753
scalar OsgEarthNet.uav[61] utilizationCountManeuversMaintenance 96
scalar OsgEarthNet.uav[61] utilizationCountChargeState 48
scalar OsgEarthNet.uav[61] utilizationCountOverdrawnAfterMission 0
scalar OsgEarthNet.uav[61] utilizationCountIdleState 45
scalar OsgEarthNet.uav[61] utilizationFail 0
scalar OsgEarthNet.uav[61] simulationTime 259200
scalar OsgEarthNet.uav[62] utilizationSecMission 24499.191127992
scalar OsgEarthNet.uav[62] utilizationSecMaintenance 20862.770926484
scalar OsgEarthNet.uav[62] utilizationSecCharge 161304.51161429
scalar OsgEarthNet.uav[62] utilizationSecIdle 52533.525331232
scalar OsgEarthNet.uav[62] utilizationEnergyMission 117220.15220261
scalar OsgEarthNet.uav[62] utilizationEnergyMaintenance 98173.432044983
scalar OsgEarthNet.uav[62] utilizationEnergyCharge 214902.73071289
scalar OsgEarthNet.uav[62] utilizationEnergyOverdrawMission 0
scalar OsgEarthNet.uav[62] utilizationEnergyOverdrawMaintenance 0
scalar OsgEarthNet.uav[62] utilizationCountMissions 45
scalar OsgEarthNet.uav[62] utilizationCountManeuversMission 754
scalar OsgEarthNet.uav[62] utilizationCountManeuversMaintenance 90
scalar OsgEarthNet.uav[62] utilizationCountChargeState 45
scalar OsgEarthNet.uav[62] utilizationCountOverdrawnAfterMission 0
scalar OsgEarthNet.uav[62] utilizationCountIdleState 38
scalar OsgEarthNet.uav[62] utilizationFail 0
scalar OsgEarthNet.uav[62] simulationTime 259200
scalar OsgEarthNet.uav[63] utilizationSecMission 27214.291021889
scalar OsgEarthNet.uav[63] utilizationSecMaintenance 19931.373834736
scalar OsgEarthNet.uav[63] utilizationSecCharge 168129.06357185
scalar OsgEarthNet.uav[63] utilizationSecIdle 43925.270571525
scalar OsgEarthNet.uav[63] utilizationEnergyMission 132163.90438843
scalar OsgEarthNet.uav[63] utilizationEnergyMaintenance 93099.642414093
scalar OsgEarthNet.uav[63] utilizationEnergyCharge 223926.94262695
scalar OsgEarthNet.uav[63] utilizationEnergyOverdrawMission 0
scalar OsgEarthNet.uav[63] utilizationEnergyOverdrawMaintenance 218.53765487671
scalar OsgEarthNet.uav[63] utilizationCountMissions 46
scalar OsgEarthNet.uav[63] utilizationCountManeuversMission 817
scalar OsgEarthNet.uav[63] utilizationCountManeuversMaintenance 92
scalar OsgEarthNet.uav[63] utilizationCountChargeState 46
scalar OsgEarthNet.uav[63] utilizationCountOverdrawnAfterMission 2
scalar OsgEarthNet.uav[63] utilizationCountIdleState 44
scalar OsgEarthNet.uav[63] utilizationFail 0
scalar OsgEarthNet.uav[63] simulationTime 259200
scalar OsgEarthNet.uav[64] utilizationSecMission 26883.522578799
scalar OsgEarthNet.uav[64] utilizationSecMaintenance 22721.778645675
scalar OsgEarthNet.uav[64] utilizationSecCharge 177531.34254429
scalar OsgEarthNet.uav[64] utilizationSecIdle 32063.355231238
scalar OsgEarthNet.uav[64] utilizationEnergyMission 132672.89215469
scalar OsgEarthNet.uav[64] utilizationEnergyMaintenance 106112.48023605
scalar OsgEarthNet.uav[64] utilizationEnergyCharge 236477.96069336
scalar OsgEarthNet.uav[64] utilizationEnergyOverdrawMission 0
scalar OsgEarthNet.uav[64] utilizationEnergyOverdrawMaintenance 70.796211242676
scalar OsgEarthNet.uav[64] utilizationCountMissions 49
scalar OsgEarthNet.uav[64] utilizationCountManeuversMission 916
scalar OsgEarthNet.uav[64] utilizationCountManeuversMaintenance 98
scalar OsgEarthNet.uav[64] utilizationCountChargeState 49
scalar OsgEarthNet.uav[64] utilizationCountOverdrawnAfterMission 2
scalar OsgEarthNet.uav[64] utilizationCountIdleState 45
scalar OsgEarthNet.uav[64] utilizationFail 0
scalar OsgEarthNet.uav[64] simulationTime 259200
scalar OsgEarthNet.uav[65] utilizationSecMission 28583.812071928
scalar OsgEarthNet.uav[65] utilizationSecMaintenance 21834.740172217
scalar OsgEarthNet.uav[65] utilizationSecCharge 180609.44675586
scalar OsgEarthNet.uav[65] utilizationSecIdle 28172
scalar OsgEarthNet.uav[65] utilizationEnergyMission 140474.22838678
scalar OsgEarthNet.uav[65] utilizationEnergyMaintenance 101605.82940674
scalar OsgEarthNet.uav[65] utilizationEnergyCharge 240681.859375
[...]
scalar OsgEarthNet.uav[81] utilizationCountChargeState 53
scalar OsgEarthNet.uav[81] utilizationCountOverdrawnAfterMission 0
scalar OsgEarthNet.uav[81] utilizationCountIdleState 36
scalar OsgEarthNet.uav[81] utilizationFail 0
scalar OsgEarthNet.uav[81] simulationTime 259200
scalar OsgEarthNet.uav[82] utilizationSecMission 30478.858320978
scalar OsgEarthNet.uav[82] utilizationSecMaintenance 24087.586215175
scalar OsgEarthNet.uav[82] utilizationSecCharge 191503.6383213
scalar OsgEarthNet.uav[82] utilizationSecIdle 13129.916142547
scalar OsgEarthNet.uav[82] utilizationEnergyMission 148189.12213135
scalar OsgEarthNet.uav[82] utilizationEnergyMaintenance 111994.98810959
scalar OsgEarthNet.uav[82] utilizationEnergyCharge 254986.15893555
scalar OsgEarthNet.uav[82] utilizationEnergyOverdrawMission 0
scalar OsgEarthNet.uav[82] utilizationEnergyOverdrawMaintenance 0
scalar OsgEarthNet.uav[82] utilizationCountMissions 54
scalar OsgEarthNet.uav[82] utilizationCountManeuversMission 1041
scalar OsgEarthNet.uav[82] utilizationCountManeuversMaintenance 108
scalar OsgEarthNet.uav[82] utilizationCountChargeState 54
scalar OsgEarthNet.uav[82] utilizationCountOverdrawnAfterMission 0
scalar OsgEarthNet.uav[82] utilizationCountIdleState 40
scalar OsgEarthNet.uav[82] utilizationFail 0
scalar OsgEarthNet.uav[82] simulationTime 259200
scalar OsgEarthNet.uav[83] utilizationSecMission 30505.580796575
scalar OsgEarthNet.uav[83] utilizationSecMaintenance 23932.412203425
scalar OsgEarthNet.uav[83] utilizationSecCharge 191980
scalar OsgEarthNet.uav[83] utilizationSecIdle 12782.006
scalar OsgEarthNet.uav[83] utilizationEnergyMission 147904.7890625
scalar OsgEarthNet.uav[83] utilizationEnergyMaintenance 110642.23387384
scalar OsgEarthNet.uav[83] utilizationEnergyCharge 254852.30541992
scalar OsgEarthNet.uav[83] utilizationEnergyOverdrawMission 0
scalar OsgEarthNet.uav[83] utilizationEnergyOverdrawMaintenance 0
scalar OsgEarthNet.uav[83] utilizationCountMissions 54
scalar OsgEarthNet.uav[83] utilizationCountManeuversMission 1090
scalar OsgEarthNet.uav[83] utilizationCountManeuversMaintenance 108
scalar OsgEarthNet.uav[83] utilizationCountChargeState 53
scalar OsgEarthNet.uav[83] utilizationCountOverdrawnAfterMission 0
scalar OsgEarthNet.uav[83] utilizationCountIdleState 36
scalar OsgEarthNet.uav[83] utilizationFail 0
scalar OsgEarthNet.uav[83] simulationTime 259200
scalar OsgEarthNet.uav[84] utilizationSecMission 29833.652196117
scalar OsgEarthNet.uav[84] utilizationSecMaintenance 23912.153285304
scalar OsgEarthNet.uav[84] utilizationSecCharge 190810
scalar OsgEarthNet.uav[84] utilizationSecIdle 14644.19351858
scalar OsgEarthNet.uav[84] utilizationEnergyMission 144201.10532379
scalar OsgEarthNet.uav[84] utilizationEnergyMaintenance 110722.2523841
scalar OsgEarthNet.uav[84] utilizationEnergyCharge 255089.65820312
scalar OsgEarthNet.uav[84] utilizationEnergyOverdrawMission 0
scalar OsgEarthNet.uav[84] utilizationEnergyOverdrawMaintenance 426.26907348633
scalar OsgEarthNet.uav[84] utilizationCountMissions 53
scalar OsgEarthNet.uav[84] utilizationCountManeuversMission 929
scalar OsgEarthNet.uav[84] utilizationCountManeuversMaintenance 107
scalar OsgEarthNet.uav[84] utilizationCountChargeState 53
scalar OsgEarthNet.uav[84] utilizationCountOverdrawnAfterMission 2
scalar OsgEarthNet.uav[84] utilizationCountIdleState 35
scalar OsgEarthNet.uav[84] utilizationFail 0
scalar OsgEarthNet.uav[84] simulationTime 259200
scalar OsgEarthNet.uav[85] utilizationSecMission 31985.16498716
scalar OsgEarthNet.uav[85] utilizationSecMaintenance 23168.128650437
scalar OsgEarthNet.uav[85] utilizationSecCharge 191290
scalar OsgEarthNet.uav[85] utilizationSecIdle 12756.705362404
scalar OsgEarthNet.uav[85] utilizationEnergyMission 152199.13999029
scalar OsgEarthNet.uav[85] utilizationEnergyMaintenance 106369.83716202
scalar OsgEarthNet.uav[85] utilizationEnergyCharge 255714.10693359
scalar OsgEarthNet.uav[85] utilizationEnergyOverdrawMission 0
scalar OsgEarthNet.uav[85] utilizationEnergyOverdrawMaintenance 11.734189987183
scalar OsgEarthNet.uav[85] utilizationCountMissions 53
scalar OsgEarthNet.uav[85] utilizationCountManeuversMission 892
scalar OsgEarthNet.uav[85] utilizationCountManeuversMaintenance 107
scalar OsgEarthNet.uav[85] utilizationCountChargeState 53
scalar OsgEarthNet.uav[85] utilizationCountOverdrawnAfterMission 1
scalar OsgEarthNet.uav[85] utilizationCountIdleState 36
scalar OsgEarthNet.uav[85] utilizationFail 0
scalar OsgEarthNet.uav[85] simulationTime 259200
scalar OsgEarthNet.uav[86] utilizationSecMission 30730.935931669
scalar OsgEarthNet.uav[86] utilizationSecMaintenance 23567.052632241
scalar OsgEarthNet.uav[86] utilizationSecCharge 190455.51363667
scalar OsgEarthNet.uav[86] utilizationSecIdle 14446.496799418
scalar OsgEarthNet.uav[86] utilizationEnergyMission 147479.28279877
scalar OsgEarthNet.uav[86] utilizationEnergyMaintenance 109401.31777954
scalar OsgEarthNet.uav[86] utilizationEnergyCharge 253707.30212402
scalar OsgEarthNet.uav[86] utilizationEnergyOverdrawMission 0
scalar OsgEarthNet.uav[86] utilizationEnergyOverdrawMaintenance 0
scalar OsgEarthNet.uav[86] utilizationCountMissions 54
scalar OsgEarthNet.uav[86] utilizationCountManeuversMission 969
scalar OsgEarthNet.uav[86] utilizationCountManeuversMaintenance 108
scalar OsgEarthNet.uav[86] utilizationCountChargeState 54
scalar OsgEarthNet.uav[86] utilizationCountOverdrawnAfterMission 0
scalar OsgEarthNet.uav[86] utilizationCountIdleState 36
scalar OsgEarthNet.uav[86] utilizationFail 0
scalar OsgEarthNet.uav[86] simulationTime 259200
scalar OsgEarthNet.uav[87] utilizationSecMission 29985.015444722
scalar OsgEarthNet.uav[87] utilizationSecMaintenance 25134.342177246
scalar OsgEarthNet.uav[87] utilizationSecCharge 193508.63837803
scalar OsgEarthNet.uav[87] utilizationSecIdle 10572.003
scalar OsgEarthNet.uav[87] utilizationEnergyMission 145006.40840149
scalar OsgEarthNet.uav[87] utilizationEnergyMaintenance 116380.43947983
scalar OsgEarthNet.uav[87] utilizationEnergyCharge 258161.3347168
scalar OsgEarthNet.uav[87] utilizationEnergyOverdrawMission 0
scalar OsgEarthNet.uav[87] utilizationEnergyOverdrawMaintenance 127.06561279297
scalar OsgEarthNet.uav[87] utilizationCountMissions 54
scalar OsgEarthNet.uav[87] utilizationCountManeuversMission 905
scalar OsgEarthNet.uav[87] utilizationCountManeuversMaintenance 108
scalar OsgEarthNet.uav[87] utilizationCountChargeState 54
scalar OsgEarthNet.uav[87] utilizationCountOverdrawnAfterMission 1
scalar OsgEarthNet.uav[87] utilizationCountIdleState 38
scalar OsgEarthNet.uav[87] utilizationFail 0
scalar OsgEarthNet.uav[87] simulationTime 259200
scalar OsgEarthNet.uav[88] utilizationSecMission 31110.982527351
scalar OsgEarthNet.uav[88] utilizationSecMaintenance 23401.232255503
scalar OsgEarthNet.uav[88] utilizationSecCharge 194325.78121715
scalar OsgEarthNet.uav[88] utilizationSecIdle 10362.003
scalar OsgEarthNet.uav[88] utilizationEnergyMission 152915.94380188
scalar OsgEarthNet.uav[88] utilizationEnergyMaintenance 108757.16238785
scalar OsgEarthNet.uav[88] utilizationEnergyCharge 259185.68554688
scalar OsgEarthNet.uav[88] utilizationEnergyOverdrawMission 0
scalar OsgEarthNet.uav[88] utilizationEnergyOverdrawMaintenance 51.264419555664
scalar OsgEarthNet.uav[88] utilizationCountMissions 54
scalar OsgEarthNet.uav[88] utilizationCountManeuversMission 1086
scalar OsgEarthNet.uav[88] utilizationCountManeuversMaintenance 108
scalar OsgEarthNet.uav[88] utilizationCountChargeState 54
scalar OsgEarthNet.uav[88] utilizationCountOverdrawnAfterMission 1
scalar OsgEarthNet.uav[88] utilizationCountIdleState 33
scalar OsgEarthNet.uav[88] utilizationFail 0
scalar OsgEarthNet.uav[88] simulationTime 259200
scalar OsgEarthNet.uav[89] utilizationSecMission 29701.01552556
scalar OsgEarthNet.uav[89] utilizationSecMaintenance 24577.662149285
scalar OsgEarthNet.uav[89] utilizationSecCharge 192249.09423712
scalar OsgEarthNet.uav[89] utilizationSecIdle 12672.227088035
scalar OsgEarthNet.uav[89] utilizationEnergyMission 147758.8210144
scalar OsgEarthNet.uav[89] utilizationEnergyMaintenance 113377.82710266
scalar OsgEarthNet.uav[89] utilizationEnergyCharge 256868.95678711
scalar OsgEarthNet.uav[89] utilizationEnergyOverdrawMission 0
scalar OsgEarthNet.uav[89] utilizationEnergyOverdrawMaintenance 0
scalar OsgEarthNet.uav[89] utilizationCountMissions 54
scalar OsgEarthNet.uav[89] utilizationCountManeuversMission 1049
scalar OsgEarthNet.uav[89] utilizationCountManeuversMaintenance 108
scalar OsgEarthNet.uav[89] utilizationCountChargeState 54
scalar OsgEarthNet.uav[89] utilizationCountOverdrawnAfterMission 0
scalar OsgEarthNet.uav[89] utilizationCountIdleState 30
scalar OsgEarthNet.uav[89] utilizationFail 0
scalar OsgEarthNet.uav[89] simulationTime 259200
scalar OsgEarthNet.uav[90] utilizationSecMission 31972.024928392
scalar OsgEarthNet.uav[90] utilizationSecMaintenance 22121.037088607
scalar OsgEarthNet.uav[90] utilizationSecCharge 191771.04025928
scalar OsgEarthNet.uav[90] utilizationSecIdle 13335.896723719
scalar OsgEarthNet.uav[90] utilizationEnergyMission 155618.73997879
scalar OsgEarthNet.uav[90] utilizationEnergyMaintenance 103164.95775986
scalar OsgEarthNet.uav[90] utilizationEnergyCharge 256252.37121582
scalar OsgEarthNet.uav[90] utilizationEnergyOverdrawMission 0
scalar OsgEarthNet.uav[90] utilizationEnergyOverdrawMaintenance 12.903230667114
scalar OsgEarthNet.uav[90] utilizationCountMissions 54
scalar OsgEarthNet.uav[90] utilizationCountManeuversMission 1039
scalar OsgEarthNet.uav[90] utilizationCountManeuversMaintenance 108
scalar OsgEarthNet.uav[90] utilizationCountChargeState 54
scalar OsgEarthNet.uav[90] utilizationCountOverdrawnAfterMission 1
scalar OsgEarthNet.uav[90] utilizationCountIdleState 35
scalar OsgEarthNet.uav[90] utilizationFail 0
scalar OsgEarthNet.uav[90] simulationTime 259200
scalar OsgEarthNet.uav[91] utilizationSecMission 31263.875519447
scalar OsgEarthNet.uav[91] utilizationSecMaintenance 23628.718814603
scalar OsgEarthNet.uav[91] utilizationSecCharge 193560.97640473
scalar OsgEarthNet.uav[91] utilizationSecIdle 10746.428261223
scalar OsgEarthNet.uav[91] utilizationEnergyMission 151058.91727829
scalar OsgEarthNet.uav[91] utilizationEnergyMaintenance 110682.8758812
scalar OsgEarthNet.uav[91] utilizationEnergyCharge 258615.24157715
scalar OsgEarthNet.uav[91] utilizationEnergyOverdrawMission 0
scalar OsgEarthNet.uav[91] utilizationEnergyOverdrawMaintenance 31.701650619507
scalar OsgEarthNet.uav[91] utilizationCountMissions 54
scalar OsgEarthNet.uav[91] utilizationCountManeuversMission 979
scalar OsgEarthNet.uav[91] utilizationCountManeuversMaintenance 108
scalar OsgEarthNet.uav[91] utilizationCountChargeState 54
scalar OsgEarthNet.uav[91] utilizationCountOverdrawnAfterMission 1
scalar OsgEarthNet.uav[91] utilizationCountIdleState 28
scalar OsgEarthNet.uav[91] utilizationFail 0
scalar OsgEarthNet.uav[91] simulationTime 259200
scalar OsgEarthNet.uav[92] utilizationSecMission 31141.137193166
scalar OsgEarthNet.uav[92] utilizationSecMaintenance 24732.691124268
scalar OsgEarthNet.uav[92] utilizationSecCharge 194844.16668257
scalar OsgEarthNet.uav[92] utilizationSecIdle 8482.004
scalar OsgEarthNet.uav[92] utilizationEnergyMission 149927.5318718
scalar OsgEarthNet.uav[92] utilizationEnergyMaintenance 116325.39702225
scalar OsgEarthNet.uav[92] utilizationEnergyCharge 262643.41943359
scalar OsgEarthNet.uav[92] utilizationEnergyOverdrawMission 0
scalar OsgEarthNet.uav[92] utilizationEnergyOverdrawMaintenance 531.64129638672
scalar OsgEarthNet.uav[92] utilizationCountMissions 55
scalar OsgEarthNet.uav[92] utilizationCountManeuversMission 958
scalar OsgEarthNet.uav[92] utilizationCountManeuversMaintenance 110
scalar OsgEarthNet.uav[92] utilizationCountChargeState 55
scalar OsgEarthNet.uav[92] utilizationCountOverdrawnAfterMission 1
scalar OsgEarthNet.uav[92] utilizationCountIdleState 26
scalar OsgEarthNet.uav[92] utilizationFail 0
scalar OsgEarthNet.uav[92] simulationTime 259200
scalar OsgEarthNet.uav[93] utilizationSecMission 30094.873112179
scalar OsgEarthNet.uav[93] utilizationSecMaintenance 25798.579629686
scalar OsgEarthNet.uav[93] utilizationSecCharge 193553.15414319
scalar OsgEarthNet.uav[93] utilizationSecIdle 9753.3921149407
scalar OsgEarthNet.uav[93] utilizationEnergyMission 144493.49572372
scalar OsgEarthNet.uav[93] utilizationEnergyMaintenance 117696.92220306
scalar OsgEarthNet.uav[93] utilizationEnergyCharge 259517.17553711
scalar OsgEarthNet.uav[93] utilizationEnergyOverdrawMission 0
scalar OsgEarthNet.uav[93] utilizationEnergyOverdrawMaintenance 0
scalar OsgEarthNet.uav[93] utilizationCountMissions 54
scalar OsgEarthNet.uav[93] utilizationCountManeuversMission 852
scalar OsgEarthNet.uav[93] utilizationCountManeuversMaintenance 108
scalar OsgEarthNet.uav[93] utilizationCountChargeState 54
scalar OsgEarthNet.uav[93] utilizationCountOverdrawnAfterMission 0
scalar OsgEarthNet.uav[93] utilizationCountIdleState 33
scalar OsgEarthNet.uav[93] utilizationFail 0
scalar OsgEarthNet.uav[93] simulationTime 259200
scalar OsgEarthNet.uav[94] utilizationSecMission 30701.494565404
scalar OsgEarthNet.uav[94] utilizationSecMaintenance 24468.603070121
scalar OsgEarthNet.uav[94] utilizationSecCharge 193817.90085709
scalar OsgEarthNet.uav[94] utilizationSecIdle 10212.000507383
scalar OsgEarthNet.uav[94] utilizationEnergyMission 146532.89505005
scalar OsgEarthNet.uav[94] utilizationEnergyMaintenance 114654.13521194
scalar OsgEarthNet.uav[94] utilizationEnergyCharge 259511.6081543
scalar OsgEarthNet.uav[94] utilizationEnergyOverdrawMission 0
scalar OsgEarthNet.uav[94] utilizationEnergyOverdrawMaintenance 0
scalar OsgEarthNet.uav[94] utilizationCountMissions 54
scalar OsgEarthNet.uav[94] utilizationCountManeuversMission 804
scalar OsgEarthNet.uav[94] utilizationCountManeuversMaintenance 108
scalar OsgEarthNet.uav[94] utilizationCountChargeState 54
scalar OsgEarthNet.uav[94] utilizationCountOverdrawnAfterMission 0
scalar OsgEarthNet.uav[94] utilizationCountIdleState 33
scalar OsgEarthNet.uav[94] utilizationFail 0
scalar OsgEarthNet.uav[94] simulationTime 259200
scalar OsgEarthNet.uav[95] utilizationSecMission 32291.837633593
scalar OsgEarthNet.uav[95] utilizationSecMaintenance 22171.009129246
scalar OsgEarthNet.uav[95] utilizationSecCharge 194537.23509461
scalar OsgEarthNet.uav[95] utilizationSecIdle 10199.917142547
scalar OsgEarthNet.uav[95] utilizationEnergyMission 156890.01696014
scalar OsgEarthNet.uav[95] utilizationEnergyMaintenance 103303.96010208
scalar OsgEarthNet.uav[95] utilizationEnergyCharge 259698.39111328
scalar OsgEarthNet.uav[95] utilizationEnergyOverdrawMission 0
scalar OsgEarthNet.uav[95] utilizationEnergyOverdrawMaintenance 239.15676879883
scalar OsgEarthNet.uav[95] utilizationCountMissions 54
scalar OsgEarthNet.uav[95] utilizationCountManeuversMission 1004
scalar OsgEarthNet.uav[95] utilizationCountManeuversMaintenance 108
scalar OsgEarthNet.uav[95] utilizationCountChargeState 54
scalar OsgEarthNet.uav[95] utilizationCountOverdrawnAfterMission 1
scalar OsgEarthNet.uav[95] utilizationCountIdleState 36
scalar OsgEarthNet.uav[95] utilizationFail 0
scalar OsgEarthNet.uav[95] simulationTime 259200
scalar OsgEarthNet.uav[96] utilizationSecMission 28967.784769191
scalar OsgEarthNet.uav[96] utilizationSecMaintenance 25980.403274559
scalar OsgEarthNet.uav[96] utilizationSecCharge 192231.20690475
scalar OsgEarthNet.uav[96] utilizationSecIdle 12020.604051504
scalar OsgEarthNet.uav[96] utilizationEnergyMission 140285.27324295
scalar OsgEarthNet.uav[96] utilizationEnergyMaintenance 120658.70577621
scalar OsgEarthNet.uav[96] utilizationEnergyCharge 260664.19848633
scalar OsgEarthNet.uav[96] utilizationEnergyOverdrawMission 0
scalar OsgEarthNet.uav[96] utilizationEnergyOverdrawMaintenance 156.25914001465
scalar OsgEarthNet.uav[96] utilizationCountMissions 54
scalar OsgEarthNet.uav[96] utilizationCountManeuversMission 915
scalar OsgEarthNet.uav[96] utilizationCountManeuversMaintenance 108
scalar OsgEarthNet.uav[96] utilizationCountChargeState 54
scalar OsgEarthNet.uav[96] utilizationCountOverdrawnAfterMission 1
scalar OsgEarthNet.uav[96] utilizationCountIdleState 24
scalar OsgEarthNet.uav[96] utilizationFail 0
scalar OsgEarthNet.uav[96] simulationTime 259200
scalar OsgEarthNet.uav[97] utilizationSecMission 30593.420432222
scalar OsgEarthNet.uav[97] utilizationSecMaintenance 25351.631106559
scalar OsgEarthNet.uav[97] utilizationSecCharge 197512.94746122
scalar OsgEarthNet.uav[97] utilizationSecIdle 5742
scalar OsgEarthNet.uav[97] utilizationEnergyMission 150395.71097565
scalar OsgEarthNet.uav[97] utilizationEnergyMaintenance 118817.49623871
scalar OsgEarthNet.uav[97] utilizationEnergyCharge 267662.47558594
scalar OsgEarthNet.uav[97] utilizationEnergyOverdrawMission 0
scalar OsgEarthNet.uav[97] utilizationEnergyOverdrawMaintenance 29.26181602478
scalar OsgEarthNet.uav[97] utilizationCountMissions 55
scalar OsgEarthNet.uav[97] utilizationCountManeuversMission 989
scalar OsgEarthNet.uav[97] utilizationCountManeuversMaintenance 110
scalar OsgEarthNet.uav[97] utilizationCountChargeState 55
scalar OsgEarthNet.uav[97] utilizationCountOverdrawnAfterMission 1
scalar OsgEarthNet.uav[97] utilizationCountIdleState 26
scalar OsgEarthNet.uav[97] utilizationFail 0
scalar OsgEarthNet.uav[97] simulationTime 259200
scalar OsgEarthNet.uav[98] utilizationSecMission 31293.29160049
scalar OsgEarthNet.uav[98] utilizationSecMaintenance 24174.70739951
scalar OsgEarthNet.uav[98] utilizationSecCharge 196160
scalar OsgEarthNet.uav[98] utilizationSecIdle 7572
scalar OsgEarthNet.uav[98] utilizationEnergyMission 149423.85898209
scalar OsgEarthNet.uav[98] utilizationEnergyMaintenance 113052.42349231
scalar OsgEarthNet.uav[98] utilizationEnergyCharge 262424.45166016
scalar OsgEarthNet.uav[98] utilizationEnergyOverdrawMission 0
scalar OsgEarthNet.uav[98] utilizationEnergyOverdrawMaintenance 0
scalar OsgEarthNet.uav[98] utilizationCountMissions 54
scalar OsgEarthNet.uav[98] utilizationCountManeuversMission 839
scalar OsgEarthNet.uav[98] utilizationCountManeuversMaintenance 109
scalar OsgEarthNet.uav[98] utilizationCountChargeState 54
scalar OsgEarthNet.uav[98] utilizationCountOverdrawnAfterMission 0
scalar OsgEarthNet.uav[98] utilizationCountIdleState 35
scalar OsgEarthNet.uav[98] utilizationFail 0
scalar OsgEarthNet.uav[98] simulationTime 259200
scalar OsgEarthNet.uav[99] utilizationSecMission 33852.303291181
scalar OsgEarthNet.uav[99] utilizationSecMaintenance 21347.153342135
scalar OsgEarthNet.uav[99] utilizationSecCharge 193348.40255613
scalar OsgEarthNet.uav[99] utilizationSecIdle 10652.139810551
scalar OsgEarthNet.uav[99] utilizationEnergyMission 161999.29558182
scalar OsgEarthNet.uav[99] utilizationEnergyMaintenance 99569.287715912
scalar OsgEarthNet.uav[99] utilizationEnergyCharge 258588.80126953
scalar OsgEarthNet.uav[99] utilizationEnergyOverdrawMission 0
scalar OsgEarthNet.uav[99] utilizationEnergyOverdrawMaintenance 38.578979492188
scalar OsgEarthNet.uav[99] utilizationCountMissions 54
scalar OsgEarthNet.uav[99] utilizationCountManeuversMission 957
scalar OsgEarthNet.uav[99] utilizationCountManeuversMaintenance 108
scalar OsgEarthNet.uav[99] utilizationCountChargeState 54
scalar OsgEarthNet.uav[99] utilizationCountOverdrawnAfterMission 1
scalar OsgEarthNet.uav[99] utilizationCountIdleState 35
scalar OsgEarthNet.uav[99] utilizationFail 0
scalar OsgEarthNet.uav[99] simulationTime 259200
scalar OsgEarthNet.cs[0] usedPower 4913069.8960033
scalar OsgEarthNet.cs[0] chargedPower 4913069.8960033
scalar OsgEarthNet.cs[0] chargedMobileNodes 839
scalar OsgEarthNet.cs[0] reservations 1023
scalar OsgEarthNet.cs[1] usedPower 4911745.6667964
scalar OsgEarthNet.cs[1] chargedPower 4911745.6667964
scalar OsgEarthNet.cs[1] chargedMobileNodes 824
scalar OsgEarthNet.cs[1] reservations 1014
scalar OsgEarthNet.cs[2] usedPower 9358249.796318
scalar OsgEarthNet.cs[2] chargedPower 9358249.796318
scalar OsgEarthNet.cs[2] chargedMobileNodes 1674
scalar OsgEarthNet.cs[2] reservations 1952

