version 2
run Szenario_Hotel_Gabelbach-27-20180707-21:55:37-25796
attr configname Szenario_Hotel_Gabelbach
attr datetime 20180707-21:55:37
attr experiment Szenario_Hotel_Gabelbach
attr inifile omnetpp.ini
attr iterationvars "$quant=0.75, $replM=0"
attr iterationvarsf quant=0.75,replM=0-
attr measurement "$quant=0.75, $replM=0"
attr network OsgEarthNet
attr processid 25796
attr repetition 3
attr replication #3
attr resultdir results
attr runnumber 27
attr seedset 27
itervar quant 0.75
itervar replM 0
param *.osgEarthScene.scene "\"Szenario_Hotel_Gabelbach.earth\""
param *.playgroundLatitude 50.6830269
param *.playgroundLongitude 10.8538055
param *.playgroundWidth 3500m
param *.playgroundHeight 3500m
param *.numCSs 3
param *.numUAVs 100
param *.cs[0].posX 3537m
param *.cs[0].posY 965m
param *.cs[0].posZ 538m
param *.cs[1].posX 312m
param *.cs[1].posY 1262m
param *.cs[1].posZ 539m
param *.cs[2].posX 2185m
param *.cs[2].posY 3026m
param *.cs[2].posZ 777m
param *.uav[*].predictionQuantile 0.75
param *.uav[*].replacementMethod 0
param *.*.timeStep 10s
param *.uav[*].commandPreviewCommandCount 20
param *.missionControl.missionFiles "\"missions\\\\Szenario_WB_Hotel_Gabelbach_Mission_Hotel.waypoints,missions\\\\Szenario_WB_Hotel_Gabelbach_Mission_Kickelhahn.waypoints,missions\\\\Szenario_WB_Hotel_Gabelbach_Mission_Ilmenau_Sportplatz.waypoints,missions\\\\Szenario_WB_Hotel_Gabelbach_Mission_Manebach_Mitte.waypoints,missions\\\\Szenario_WB_Hotel_Gabelbach_Mission_Manebach_Sued.waypoints,missions\\\\Szenario_WB_Hotel_Gabelbach_Hover_HoheSchlaufe.waypoints,missions\\\\Szenario_WB_Hotel_Gabelbach_Hover_Kickelhahn.waypoints,missions\\\\Szenario_WB_Hotel_Gabelbach_Hover_Gabelbachskopf.waypoints,missions\\\\Szenario_WB_Hotel_Gabelbach_Hover_Dachskopf.waypoints\""
param *.uav[0].startX 3537m
param *.uav[0].startY 965m
param *.uav[0].startZ 539m
param *.uav[1].startX 312m
param *.uav[1].startY 1262m
param *.uav[1].startZ 540m
param *.uav[2].startX 2185m
param *.uav[2].startY 3026m
param *.uav[2].startZ 778m
param *.uav[3].startX 3537m
param *.uav[3].startY 965m
param *.uav[3].startZ 539m
param *.uav[4].startX 312m
param *.uav[4].startY 1262m
param *.uav[4].startZ 540m
param *.uav[5].startX 2185m
param *.uav[5].startY 3026m
param *.uav[5].startZ 778m
param *.uav[6].startX 3537m
param *.uav[6].startY 965m
param *.uav[6].startZ 539m
param *.uav[7].startX 312m
param *.uav[7].startY 1262m
param *.uav[7].startZ 540m
param *.uav[8].startX 2185m
param *.uav[8].startY 3026m
param *.uav[8].startZ 778m
param *.uav[9].startX 3537m
param *.uav[9].startY 965m
param *.uav[9].startZ 539m
param *.uav[10].startX 3537m
param *.uav[10].startY 965m
param *.uav[10].startZ 539m
param *.uav[11].startX 312m
param *.uav[11].startY 1262m
param *.uav[11].startZ 540m
param *.uav[12].startX 2185m
param *.uav[12].startY 3026m
param *.uav[12].startZ 778m
param *.uav[13].startX 3537m
param *.uav[13].startY 965m
param *.uav[13].startZ 539m
param *.uav[14].startX 312m
param *.uav[14].startY 1262m
param *.uav[14].startZ 540m
param *.uav[15].startX 2185m
param *.uav[15].startY 3026m
param *.uav[15].startZ 778m
param *.uav[16].startX 3537m
param *.uav[16].startY 965m
param *.uav[16].startZ 539m
param *.uav[17].startX 312m
param *.uav[17].startY 1262m
param *.uav[17].startZ 540m
param *.uav[18].startX 2185m
param *.uav[18].startY 3026m
param *.uav[18].startZ 778m
param *.uav[19].startX 3537m
param *.uav[19].startY 965m
param *.uav[19].startZ 539m
param *.uav[20].startX 3537m
param *.uav[20].startY 965m
param *.uav[20].startZ 539m
param *.uav[21].startX 312m
param *.uav[21].startY 1262m
param *.uav[21].startZ 540m
param *.uav[22].startX 2185m
param *.uav[22].startY 3026m
param *.uav[22].startZ 778m
param *.uav[23].startX 3537m
param *.uav[23].startY 965m
param *.uav[23].startZ 539m
param *.uav[24].startX 312m
param *.uav[24].startY 1262m
param *.uav[24].startZ 540m
param *.uav[25].startX 2185m
param *.uav[25].startY 3026m
param *.uav[25].startZ 778m
param *.uav[26].startX 3537m
param *.uav[26].startY 965m
param *.uav[26].startZ 539m
param *.uav[27].startX 312m
param *.uav[27].startY 1262m
param *.uav[27].startZ 540m
param *.uav[28].startX 2185m
param *.uav[28].startY 3026m
param *.uav[28].startZ 778m
param *.uav[29].startX 3537m
param *.uav[29].startY 965m
param *.uav[29].startZ 539m
param *.uav[30].startX 3537m
param *.uav[30].startY 965m
param *.uav[30].startZ 539m
param *.uav[31].startX 312m
param *.uav[31].startY 1262m
param *.uav[31].startZ 540m
param *.uav[32].startX 2185m
param *.uav[32].startY 3026m
param *.uav[32].startZ 778m
param *.uav[33].startX 3537m
param *.uav[33].startY 965m
param *.uav[33].startZ 539m
param *.uav[34].startX 312m
param *.uav[34].startY 1262m
param *.uav[34].startZ 540m
param *.uav[35].startX 2185m
param *.uav[35].startY 3026m
param *.uav[35].startZ 778m
param *.uav[36].startX 3537m
param *.uav[36].startY 965m
param *.uav[36].startZ 539m
param *.uav[37].startX 312m
param *.uav[37].startY 1262m
param *.uav[37].startZ 540m
param *.uav[38].startX 2185m
param *.uav[38].startY 3026m
param *.uav[38].startZ 778m
param *.uav[39].startX 3537m
param *.uav[39].startY 965m
param *.uav[39].startZ 539m
param *.uav[40].startX 3537m
param *.uav[40].startY 965m
param *.uav[40].startZ 539m
param *.uav[41].startX 312m
param *.uav[41].startY 1262m
param *.uav[41].startZ 540m
param *.uav[42].startX 2185m
param *.uav[42].startY 3026m
param *.uav[42].startZ 778m
param *.uav[43].startX 3537m
param *.uav[43].startY 965m
param *.uav[43].startZ 539m
param *.uav[44].startX 312m
param *.uav[44].startY 1262m
param *.uav[44].startZ 540m
param *.uav[45].startX 2185m
param *.uav[45].startY 3026m
param *.uav[45].startZ 778m
param *.uav[46].startX 3537m
param *.uav[46].startY 965m
param *.uav[46].startZ 539m
param *.uav[47].startX 312m
param *.uav[47].startY 1262m
param *.uav[47].startZ 540m
param *.uav[48].startX 2185m
param *.uav[48].startY 3026m
param *.uav[48].startZ 778m
param *.uav[49].startX 3537m
param *.uav[49].startY 965m
param *.uav[49].startZ 539m
param *.uav[50].startX 3537m
param *.uav[50].startY 965m
param *.uav[50].startZ 539m
param *.uav[51].startX 312m
param *.uav[51].startY 1262m
param *.uav[51].startZ 540m
param *.uav[52].startX 2185m
param *.uav[52].startY 3026m
param *.uav[52].startZ 778m
param *.uav[53].startX 3537m
param *.uav[53].startY 965m
param *.uav[53].startZ 539m
param *.uav[54].startX 312m
param *.uav[54].startY 1262m
param *.uav[54].startZ 540m
param *.uav[55].startX 2185m
param *.uav[55].startY 3026m
param *.uav[55].startZ 778m
param *.uav[56].startX 3537m
param *.uav[56].startY 965m
param *.uav[56].startZ 539m
param *.uav[57].startX 312m
param *.uav[57].startY 1262m
param *.uav[57].startZ 540m
param *.uav[58].startX 2185m
param *.uav[58].startY 3026m
param *.uav[58].startZ 778m
param *.uav[59].startX 3537m
param *.uav[59].startY 965m
param *.uav[59].startZ 539m
param *.uav[60].startX 3537m
param *.uav[60].startY 965m
param *.uav[60].startZ 539m
param *.uav[61].startX 312m
param *.uav[61].startY 1262m
param *.uav[61].startZ 540m
param *.uav[62].startX 2185m
param *.uav[62].startY 3026m
param *.uav[62].startZ 778m
param *.uav[63].startX 3537m
param *.uav[63].startY 965m
param *.uav[63].startZ 539m
param *.uav[64].startX 312m
param *.uav[64].startY 1262m
param *.uav[64].startZ 540m
param *.uav[65].startX 2185m
param *.uav[65].startY 3026m
param *.uav[65].startZ 778m
param *.uav[66].startX 3537m
param *.uav[66].startY 965m
param *.uav[66].startZ 539m
param *.uav[67].startX 312m
param *.uav[67].startY 1262m
param *.uav[67].startZ 540m
param *.uav[68].startX 2185m
param *.uav[68].startY 3026m
param *.uav[68].startZ 778m
param *.uav[69].startX 3537m
param *.uav[69].startY 965m
param *.uav[69].startZ 539m
param *.uav[70].startX 3537m
param *.uav[70].startY 965m
param *.uav[70].startZ 539m
param *.uav[71].startX 312m
param *.uav[71].startY 1262m
param *.uav[71].startZ 540m
param *.uav[72].startX 2185m
param *.uav[72].startY 3026m
param *.uav[72].startZ 778m
param *.uav[73].startX 3537m
param *.uav[73].startY 965m
param *.uav[73].startZ 539m
param *.uav[74].startX 312m
param *.uav[74].startY 1262m
param *.uav[74].startZ 540m
param *.uav[75].startX 2185m
param *.uav[75].startY 3026m
param *.uav[75].startZ 778m
param *.uav[76].startX 3537m
param *.uav[76].startY 965m
param *.uav[76].startZ 539m
param *.uav[77].startX 312m
param *.uav[77].startY 1262m
param *.uav[77].startZ 540m
param *.uav[78].startX 2185m
param *.uav[78].startY 3026m
param *.uav[78].startZ 778m
param *.uav[79].startX 3537m
param *.uav[79].startY 965m
param *.uav[79].startZ 539m
param *.uav[80].startX 3537m
param *.uav[80].startY 965m
param *.uav[80].startZ 539m
param *.uav[81].startX 312m
param *.uav[81].startY 1262m
param *.uav[81].startZ 540m
param *.uav[82].startX 2185m
param *.uav[82].startY 3026m
param *.uav[82].startZ 778m
param *.uav[83].startX 3537m
param *.uav[83].startY 965m
param *.uav[83].startZ 539m
param *.uav[84].startX 312m
param *.uav[84].startY 1262m
param *.uav[84].startZ 540m
param *.uav[85].startX 2185m
param *.uav[85].startY 3026m
param *.uav[85].startZ 778m
param *.uav[86].startX 3537m
param *.uav[86].startY 965m
param *.uav[86].startZ 539m
param *.uav[87].startX 312m
param *.uav[87].startY 1262m
param *.uav[87].startZ 540m
param *.uav[88].startX 2185m
param *.uav[88].startY 3026m
param *.uav[88].startZ 778m
param *.uav[89].startX 3537m
param *.uav[89].startY 965m
param *.uav[89].startZ 539m
param *.uav[90].startX 3537m
param *.uav[90].startY 965m
param *.uav[90].startZ 539m
param *.uav[91].startX 312m
param *.uav[91].startY 1262m
param *.uav[91].startZ 540m
param *.uav[92].startX 2185m
param *.uav[92].startY 3026m
param *.uav[92].startZ 778m
param *.uav[93].startX 3537m
param *.uav[93].startY 965m
param *.uav[93].startZ 539m
param *.uav[94].startX 312m
param *.uav[94].startY 1262m
param *.uav[94].startZ 540m
param *.uav[95].startX 2185m
param *.uav[95].startY 3026m
param *.uav[95].startZ 778m
param *.uav[96].startX 3537m
param *.uav[96].startY 965m
param *.uav[96].startZ 539m
param *.uav[97].startX 312m
param *.uav[97].startY 1262m
param *.uav[97].startZ 540m
param *.uav[98].startX 2185m
param *.uav[98].startY 3026m
param *.uav[98].startZ 778m
param *.uav[99].startX 3537m
param *.uav[99].startY 965m
param *.uav[99].startZ 539m
param *.osgEarthScene.scene "\"boston.earth\""
param *.playgroundLatitude 42.3558
param *.playgroundLongitude -71.0677
param *.playgroundWidth 400m
param *.playgroundHeight 200m
param *.channelController.connectionColor "\"#0000FF40\""
param *.channelController.showConnections false
param *.uav[*].modelURL "\"quadrocopter.small.obj.15.scale.0,0,90.rot\""
param *.uav[*].labelColor "\"#FF7C00CC\""
param *.uav[*].label2Color "\"#FF7C00EE\""
param *.uav[*].batteryCapacity 5200mAh
param *.uav[*].batteryRemaining uav[index].batteryCapacity
param *.uav[*].predictionQuantile 0.95
param *.uav[*].replacementMethod 2
param *.uav[*].weightedSumWeight 0.5
param *.cs[*].modelURL "\"chargingstation_v1.osgt.1.scale.0,0,0.rot.0,0,-15e-1.trans\""
param *.cs[*].spotsWaiting 999
param *.cs[*].spotsCharging 999
param *.cs[*].chargeEffectivenessPercentage 100
param *.cs[*].nonLinearPhaseStartPercentage 85
param *.cs[*].chargeCurrent 6.0A
param *.cs[*].prioritizeFastCharge true
param *.missionControl.replacementSearchMethod 0
param *.*.timeStep 9s

scalar OsgEarthNet.uav[0] utilizationSecMission 536.06111026321
scalar OsgEarthNet.uav[0] utilizationSecMaintenance 387.76056727994
scalar OsgEarthNet.uav[0] utilizationSecCharge 3370
scalar OsgEarthNet.uav[0] utilizationSecIdle 254906.17732246
scalar OsgEarthNet.uav[0] utilizationEnergyMission 2561.0958709717
scalar OsgEarthNet.uav[0] utilizationEnergyMaintenance 1806.2777938843
scalar OsgEarthNet.uav[0] utilizationEnergyCharge 4367.3681640625
scalar OsgEarthNet.uav[0] utilizationEnergyOverdrawMission 0
scalar OsgEarthNet.uav[0] utilizationEnergyOverdrawMaintenance 0
scalar OsgEarthNet.uav[0] utilizationCountMissions 1
scalar OsgEarthNet.uav[0] utilizationCountManeuversMission 8
scalar OsgEarthNet.uav[0] utilizationCountManeuversMaintenance 2
scalar OsgEarthNet.uav[0] utilizationCountChargeState 1
scalar OsgEarthNet.uav[0] utilizationCountOverdrawnAfterMission 0
scalar OsgEarthNet.uav[0] utilizationCountIdleState 2
scalar OsgEarthNet.uav[0] utilizationFail 0
scalar OsgEarthNet.uav[0] simulationTime 259200
scalar OsgEarthNet.uav[1] utilizationSecMission 26878.040476357
scalar OsgEarthNet.uav[1] utilizationSecMaintenance 22679.529038556
scalar OsgEarthNet.uav[1] utilizationSecCharge 180060.42548509
scalar OsgEarthNet.uav[1] utilizationSecIdle 29582.004
scalar OsgEarthNet.uav[1] utilizationEnergyMission 133492.53179932
scalar OsgEarthNet.uav[1] utilizationEnergyMaintenance 106257.57873154
scalar OsgEarthNet.uav[1] utilizationEnergyCharge 239541.17724609
scalar OsgEarthNet.uav[1] utilizationEnergyOverdrawMission 0
scalar OsgEarthNet.uav[1] utilizationEnergyOverdrawMaintenance 4.6535377502441
scalar OsgEarthNet.uav[1] utilizationCountMissions 49
scalar OsgEarthNet.uav[1] utilizationCountManeuversMission 933
scalar OsgEarthNet.uav[1] utilizationCountManeuversMaintenance 98
scalar OsgEarthNet.uav[1] utilizationCountChargeState 49
scalar OsgEarthNet.uav[1] utilizationCountOverdrawnAfterMission 1
scalar OsgEarthNet.uav[1] utilizationCountIdleState 49
scalar OsgEarthNet.uav[1] utilizationFail 0
scalar OsgEarthNet.uav[1] simulationTime 259200
scalar OsgEarthNet.uav[2] utilizationSecMission 18141.052570648
scalar OsgEarthNet.uav[2] utilizationSecMaintenance 14476.942429352
scalar OsgEarthNet.uav[2] utilizationSecCharge 112640
scalar OsgEarthNet.uav[2] utilizationSecIdle 113942.004
scalar OsgEarthNet.uav[2] utilizationEnergyMission 88070.218070984
scalar OsgEarthNet.uav[2] utilizationEnergyMaintenance 66737.107202012
scalar OsgEarthNet.uav[2] utilizationEnergyCharge 148347.29101562
scalar OsgEarthNet.uav[2] utilizationEnergyOverdrawMission 0
scalar OsgEarthNet.uav[2] utilizationEnergyOverdrawMaintenance 0
scalar OsgEarthNet.uav[2] utilizationCountMissions 32
scalar OsgEarthNet.uav[2] utilizationCountManeuversMission 581
scalar OsgEarthNet.uav[2] utilizationCountManeuversMaintenance 64
scalar OsgEarthNet.uav[2] utilizationCountChargeState 31
scalar OsgEarthNet.uav[2] utilizationCountOverdrawnAfterMission 0
scalar OsgEarthNet.uav[2] utilizationCountIdleState 32
scalar OsgEarthNet.uav[2] utilizationFail 0
scalar OsgEarthNet.uav[2] simulationTime 259200
scalar OsgEarthNet.uav[3] utilizationSecMission 27989.999747576
scalar OsgEarthNet.uav[3] utilizationSecMaintenance 20517.85943928
scalar OsgEarthNet.uav[3] utilizationSecCharge 174150
scalar OsgEarthNet.uav[3] utilizationSecIdle 36542.139813144
scalar OsgEarthNet.uav[3] utilizationEnergyMission 136068.00240783
scalar OsgEarthNet.uav[3] utilizationEnergyMaintenance 94846.366504669
scalar OsgEarthNet.uav[3] utilizationEnergyCharge 228980.09960938
scalar OsgEarthNet.uav[3] utilizationEnergyOverdrawMission 0
scalar OsgEarthNet.uav[3] utilizationEnergyOverdrawMaintenance 70.956771850586
scalar OsgEarthNet.uav[3] utilizationCountMissions 48
scalar OsgEarthNet.uav[3] utilizationCountManeuversMission 871
scalar OsgEarthNet.uav[3] utilizationCountManeuversMaintenance 97
scalar OsgEarthNet.uav[3] utilizationCountChargeState 48
scalar OsgEarthNet.uav[3] utilizationCountOverdrawnAfterMission 1
scalar OsgEarthNet.uav[3] utilizationCountIdleState 49
scalar OsgEarthNet.uav[3] utilizationFail 0
scalar OsgEarthNet.uav[3] simulationTime 259200
scalar OsgEarthNet.uav[4] utilizationSecMission 460
scalar OsgEarthNet.uav[4] utilizationSecMaintenance 507.16988087142
scalar OsgEarthNet.uav[4] utilizationSecCharge 3690
scalar OsgEarthNet.uav[4] utilizationSecIdle 254542.82911913
scalar OsgEarthNet.uav[4] utilizationEnergyMission 2263.1649131775
scalar OsgEarthNet.uav[4] utilizationEnergyMaintenance 2274.6427726746
scalar OsgEarthNet.uav[4] utilizationEnergyCharge 4927.0083007812
scalar OsgEarthNet.uav[4] utilizationEnergyOverdrawMission 0
scalar OsgEarthNet.uav[4] utilizationEnergyOverdrawMaintenance 0
scalar OsgEarthNet.uav[4] utilizationCountMissions 1
scalar OsgEarthNet.uav[4] utilizationCountManeuversMission 23
scalar OsgEarthNet.uav[4] utilizationCountManeuversMaintenance 2
scalar OsgEarthNet.uav[4] utilizationCountChargeState 1
scalar OsgEarthNet.uav[4] utilizationCountOverdrawnAfterMission 0
scalar OsgEarthNet.uav[4] utilizationCountIdleState 2
scalar OsgEarthNet.uav[4] utilizationFail 0
scalar OsgEarthNet.uav[4] simulationTime 259200
scalar OsgEarthNet.uav[5] utilizationSecMission 24271.91170487
scalar OsgEarthNet.uav[5] utilizationSecMaintenance 14578.375341228
scalar OsgEarthNet.uav[5] utilizationSecCharge 136397.7089539
scalar OsgEarthNet.uav[5] utilizationSecIdle 83952.003
scalar OsgEarthNet.uav[5] utilizationEnergyMission 115867.01346588
scalar OsgEarthNet.uav[5] utilizationEnergyMaintenance 66434.782184601
scalar OsgEarthNet.uav[5] utilizationEnergyCharge 180312.00082397
scalar OsgEarthNet.uav[5] utilizationEnergyOverdrawMission 0
scalar OsgEarthNet.uav[5] utilizationEnergyOverdrawMaintenance 0
scalar OsgEarthNet.uav[5] utilizationCountMissions 38
scalar OsgEarthNet.uav[5] utilizationCountManeuversMission 758
scalar OsgEarthNet.uav[5] utilizationCountManeuversMaintenance 76
scalar OsgEarthNet.uav[5] utilizationCountChargeState 38
scalar OsgEarthNet.uav[5] utilizationCountOverdrawnAfterMission 0
scalar OsgEarthNet.uav[5] utilizationCountIdleState 38
scalar OsgEarthNet.uav[5] utilizationFail 0
scalar OsgEarthNet.uav[5] simulationTime 259200
scalar OsgEarthNet.uav[6] utilizationSecMission 29688.471943696
scalar OsgEarthNet.uav[6] utilizationSecMaintenance 20240.013395355
scalar OsgEarthNet.uav[6] utilizationSecCharge 175020
scalar OsgEarthNet.uav[6] utilizationSecIdle 34251.51366095
scalar OsgEarthNet.uav[6] utilizationEnergyMission 143120.08611298
scalar OsgEarthNet.uav[6] utilizationEnergyMaintenance 92707.843676406
scalar OsgEarthNet.uav[6] utilizationEnergyCharge 230728.98242188
scalar OsgEarthNet.uav[6] utilizationEnergyOverdrawMission 0
scalar OsgEarthNet.uav[6] utilizationEnergyOverdrawMaintenance 0
scalar OsgEarthNet.uav[6] utilizationCountMissions 49
scalar OsgEarthNet.uav[6] utilizationCountManeuversMission 842
scalar OsgEarthNet.uav[6] utilizationCountManeuversMaintenance 98
scalar OsgEarthNet.uav[6] utilizationCountChargeState 48
scalar OsgEarthNet.uav[6] utilizationCountOverdrawnAfterMission 0
scalar OsgEarthNet.uav[6] utilizationCountIdleState 49
scalar OsgEarthNet.uav[6] utilizationFail 0
scalar OsgEarthNet.uav[6] simulationTime 259200
scalar OsgEarthNet.uav[7] utilizationSecMission 24249.063649583
scalar OsgEarthNet.uav[7] utilizationSecMaintenance 20656.908136619
scalar OsgEarthNet.uav[7] utilizationSecCharge 164920
scalar OsgEarthNet.uav[7] utilizationSecIdle 49374.027213799
scalar OsgEarthNet.uav[7] utilizationEnergyMission 119982.13336945
scalar OsgEarthNet.uav[7] utilizationEnergyMaintenance 96531.12059021
scalar OsgEarthNet.uav[7] utilizationEnergyCharge 217762.02978516
scalar OsgEarthNet.uav[7] utilizationEnergyOverdrawMission 0
scalar OsgEarthNet.uav[7] utilizationEnergyOverdrawMaintenance 0
scalar OsgEarthNet.uav[7] utilizationCountMissions 45
scalar OsgEarthNet.uav[7] utilizationCountManeuversMission 825
scalar OsgEarthNet.uav[7] utilizationCountManeuversMaintenance 90
scalar OsgEarthNet.uav[7] utilizationCountChargeState 45
scalar OsgEarthNet.uav[7] utilizationCountOverdrawnAfterMission 0
scalar OsgEarthNet.uav[7] utilizationCountIdleState 46
scalar OsgEarthNet.uav[7] utilizationFail 0
scalar OsgEarthNet.uav[7] simulationTime 259200
scalar OsgEarthNet.uav[8] utilizationSecMission 5643.910822554
scalar OsgEarthNet.uav[8] utilizationSecMaintenance 4533.4571077894
scalar OsgEarthNet.uav[8] utilizationSecCharge 36310
scalar OsgEarthNet.uav[8] utilizationSecIdle 212712.63106966
scalar OsgEarthNet.uav[8] utilizationEnergyMission 27676.560199738
scalar OsgEarthNet.uav[8] utilizationEnergyMaintenance 21021.985527039
scalar OsgEarthNet.uav[8] utilizationEnergyCharge 47745.473632812
scalar OsgEarthNet.uav[8] utilizationEnergyOverdrawMission 0
scalar OsgEarthNet.uav[8] utilizationEnergyOverdrawMaintenance 0
scalar OsgEarthNet.uav[8] utilizationCountMissions 10
scalar OsgEarthNet.uav[8] utilizationCountManeuversMission 177
scalar OsgEarthNet.uav[8] utilizationCountManeuversMaintenance 20
scalar OsgEarthNet.uav[8] utilizationCountChargeState 10
scalar OsgEarthNet.uav[8] utilizationCountOverdrawnAfterMission 0
scalar OsgEarthNet.uav[8] utilizationCountIdleState 11
scalar OsgEarthNet.uav[8] utilizationFail 0
scalar OsgEarthNet.uav[8] simulationTime 259200
scalar OsgEarthNet.uav[9] utilizationSecMission 373.51498974598
scalar OsgEarthNet.uav[9] utilizationSecMaintenance 615.18747367862
scalar OsgEarthNet.uav[9] utilizationSecCharge 3500
scalar OsgEarthNet.uav[9] utilizationSecIdle 254711.29653658
scalar OsgEarthNet.uav[9] utilizationEnergyMission 1649.9189376831
scalar OsgEarthNet.uav[9] utilizationEnergyMaintenance 2928.6677360535
scalar OsgEarthNet.uav[9] utilizationEnergyCharge 4578.5874023438
scalar OsgEarthNet.uav[9] utilizationEnergyOverdrawMission 0
scalar OsgEarthNet.uav[9] utilizationEnergyOverdrawMaintenance 0
scalar OsgEarthNet.uav[9] utilizationCountMissions 1
scalar OsgEarthNet.uav[9] utilizationCountManeuversMission 7
scalar OsgEarthNet.uav[9] utilizationCountManeuversMaintenance 2
scalar OsgEarthNet.uav[9] utilizationCountChargeState 1
scalar OsgEarthNet.uav[9] utilizationCountOverdrawnAfterMission 0
scalar OsgEarthNet.uav[9] utilizationCountIdleState 2
scalar OsgEarthNet.uav[9] utilizationFail 0
scalar OsgEarthNet.uav[9] simulationTime 259200
scalar OsgEarthNet.uav[10] utilizationSecMission 21416.030079666
scalar OsgEarthNet.uav[10] utilizationSecMaintenance 15301.320381756
scalar OsgEarthNet.uav[10] utilizationSecCharge 131346.21727735
scalar OsgEarthNet.uav[10] utilizationSecIdle 91136.431261223
scalar OsgEarthNet.uav[10] utilizationEnergyMission 103728.37344742
scalar OsgEarthNet.uav[10] utilizationEnergyMaintenance 70808.503723144
scalar OsgEarthNet.uav[10] utilizationEnergyCharge 173942.66699219
scalar OsgEarthNet.uav[10] utilizationEnergyOverdrawMission 0
scalar OsgEarthNet.uav[10] utilizationEnergyOverdrawMaintenance 0
scalar OsgEarthNet.uav[10] utilizationCountMissions 36
scalar OsgEarthNet.uav[10] utilizationCountManeuversMission 702
scalar OsgEarthNet.uav[10] utilizationCountManeuversMaintenance 72
scalar OsgEarthNet.uav[10] utilizationCountChargeState 36
scalar OsgEarthNet.uav[10] utilizationCountOverdrawnAfterMission 0
scalar OsgEarthNet.uav[10] utilizationCountIdleState 36
scalar OsgEarthNet.uav[10] utilizationFail 0
scalar OsgEarthNet.uav[10] simulationTime 259200
scalar OsgEarthNet.uav[11] utilizationSecMission 28089.56658802
scalar OsgEarthNet.uav[11] utilizationSecMaintenance 22551.123129585
scalar OsgEarthNet.uav[11] utilizationSecCharge 179647.30828239
scalar OsgEarthNet.uav[11] utilizationSecIdle 28912.001
scalar OsgEarthNet.uav[11] utilizationEnergyMission 135634.92753983
scalar OsgEarthNet.uav[11] utilizationEnergyMaintenance 105331.53322601
scalar OsgEarthNet.uav[11] utilizationEnergyCharge 237262.6697998
scalar OsgEarthNet.uav[11] utilizationEnergyOverdrawMission 0
scalar OsgEarthNet.uav[11] utilizationEnergyOverdrawMaintenance 140.97831344604
scalar OsgEarthNet.uav[11] utilizationCountMissions 50
scalar OsgEarthNet.uav[11] utilizationCountManeuversMission 764
scalar OsgEarthNet.uav[11] utilizationCountManeuversMaintenance 100
scalar OsgEarthNet.uav[11] utilizationCountChargeState 50
scalar OsgEarthNet.uav[11] utilizationCountOverdrawnAfterMission 2
scalar OsgEarthNet.uav[11] utilizationCountIdleState 50
scalar OsgEarthNet.uav[11] utilizationFail 0
scalar OsgEarthNet.uav[11] simulationTime 259200
scalar OsgEarthNet.uav[12] utilizationSecMission 29869.809007468
scalar OsgEarthNet.uav[12] utilizationSecMaintenance 21328.189992532
scalar OsgEarthNet.uav[12] utilizationSecCharge 183820
scalar OsgEarthNet.uav[12] utilizationSecIdle 24182
scalar OsgEarthNet.uav[12] utilizationEnergyMission 146846.0018941
scalar OsgEarthNet.uav[12] utilizationEnergyMaintenance 98650.900234222
scalar OsgEarthNet.uav[12] utilizationEnergyCharge 242925.57275391
scalar OsgEarthNet.uav[12] utilizationEnergyOverdrawMission 0
scalar OsgEarthNet.uav[12] utilizationEnergyOverdrawMaintenance 20.638660430908
scalar OsgEarthNet.uav[12] utilizationCountMissions 50
scalar OsgEarthNet.uav[12] utilizationCountManeuversMission 956
scalar OsgEarthNet.uav[12] utilizationCountManeuversMaintenance 100
scalar OsgEarthNet.uav[12] utilizationCountChargeState 50
scalar OsgEarthNet.uav[12] utilizationCountOverdrawnAfterMission 1
scalar OsgEarthNet.uav[12] utilizationCountIdleState 51
scalar OsgEarthNet.uav[12] utilizationFail 0
scalar OsgEarthNet.uav[12] simulationTime 259200
scalar OsgEarthNet.uav[13] utilizationSecMission 29771.705555927
scalar OsgEarthNet.uav[13] utilizationSecMaintenance 20979.68307538
scalar OsgEarthNet.uav[13] utilizationSecCharge 180896.61036869
scalar OsgEarthNet.uav[13] utilizationSecIdle 27552
scalar OsgEarthNet.uav[13] utilizationEnergyMission 143449.74139023
scalar OsgEarthNet.uav[13] utilizationEnergyMaintenance 97066.634853363
scalar OsgEarthNet.uav[13] utilizationEnergyCharge 239109.97009277
scalar OsgEarthNet.uav[13] utilizationEnergyOverdrawMission 0
scalar OsgEarthNet.uav[13] utilizationEnergyOverdrawMaintenance 459.71105957031
scalar OsgEarthNet.uav[13] utilizationCountMissions 50
scalar OsgEarthNet.uav[13] utilizationCountManeuversMission 971
scalar OsgEarthNet.uav[13] utilizationCountManeuversMaintenance 100
scalar OsgEarthNet.uav[13] utilizationCountChargeState 50
scalar OsgEarthNet.uav[13] utilizationCountOverdrawnAfterMission 1
scalar OsgEarthNet.uav[13] utilizationCountIdleState 50
scalar OsgEarthNet.uav[13] utilizationFail 0
scalar OsgEarthNet.uav[13] simulationTime 259200
scalar OsgEarthNet.uav[14] utilizationSecMission 27685.884583833
scalar OsgEarthNet.uav[14] utilizationSecMaintenance 19649.232200638
scalar OsgEarthNet.uav[14] utilizationSecCharge 169150
scalar OsgEarthNet.uav[14] utilizationSecIdle 42714.882215529
scalar OsgEarthNet.uav[14] utilizationEnergyMission 133671.11198044
scalar OsgEarthNet.uav[14] utilizationEnergyMaintenance 89932.211082458
scalar OsgEarthNet.uav[14] utilizationEnergyCharge 223673.29345703
scalar OsgEarthNet.uav[14] utilizationEnergyOverdrawMission 0
scalar OsgEarthNet.uav[14] utilizationEnergyOverdrawMaintenance 0
scalar OsgEarthNet.uav[14] utilizationCountMissions 46
scalar OsgEarthNet.uav[14] utilizationCountManeuversMission 712
scalar OsgEarthNet.uav[14] utilizationCountManeuversMaintenance 92
scalar OsgEarthNet.uav[14] utilizationCountChargeState 46
scalar OsgEarthNet.uav[14] utilizationCountOverdrawnAfterMission 0
scalar OsgEarthNet.uav[14] utilizationCountIdleState 47
scalar OsgEarthNet.uav[14] utilizationFail 0
scalar OsgEarthNet.uav[14] simulationTime 259200
scalar OsgEarthNet.uav[15] utilizationSecMission 25555.935420995
scalar OsgEarthNet.uav[15] utilizationSecMaintenance 17136.15685286
scalar OsgEarthNet.uav[15] utilizationSecCharge 152801.2013636
scalar OsgEarthNet.uav[15] utilizationSecIdle 63706.705362542
scalar OsgEarthNet.uav[15] utilizationEnergyMission 122956.02450562
scalar OsgEarthNet.uav[15] utilizationEnergyMaintenance 79961.838165283
scalar OsgEarthNet.uav[15] utilizationEnergyCharge 203388.14550781
scalar OsgEarthNet.uav[15] utilizationEnergyOverdrawMission 0
scalar OsgEarthNet.uav[15] utilizationEnergyOverdrawMaintenance 85.027740478516
scalar OsgEarthNet.uav[15] utilizationCountMissions 42
scalar OsgEarthNet.uav[15] utilizationCountManeuversMission 782
scalar OsgEarthNet.uav[15] utilizationCountManeuversMaintenance 84
scalar OsgEarthNet.uav[15] utilizationCountChargeState 42
scalar OsgEarthNet.uav[15] utilizationCountOverdrawnAfterMission 2
scalar OsgEarthNet.uav[15] utilizationCountIdleState 42
scalar OsgEarthNet.uav[15] utilizationFail 0
scalar OsgEarthNet.uav[15] simulationTime 259200
scalar OsgEarthNet.uav[16] utilizationSecMission 18690.520544951
scalar OsgEarthNet.uav[16] utilizationSecMaintenance 14587.570395387
scalar OsgEarthNet.uav[16] utilizationSecCharge 119170
scalar OsgEarthNet.uav[16] utilizationSecIdle 106751.90805966
scalar OsgEarthNet.uav[16] utilizationEnergyMission 89677.991001129
scalar OsgEarthNet.uav[16] utilizationEnergyMaintenance 67733.417289734
scalar OsgEarthNet.uav[16] utilizationEnergyCharge 156632.71582031
scalar OsgEarthNet.uav[16] utilizationEnergyOverdrawMission 0
scalar OsgEarthNet.uav[16] utilizationEnergyOverdrawMaintenance 0
scalar OsgEarthNet.uav[16] utilizationCountMissions 33
scalar OsgEarthNet.uav[16] utilizationCountManeuversMission 550
scalar OsgEarthNet.uav[16] utilizationCountManeuversMaintenance 66
scalar OsgEarthNet.uav[16] utilizationCountChargeState 33
scalar OsgEarthNet.uav[16] utilizationCountOverdrawnAfterMission 0
scalar OsgEarthNet.uav[16] utilizationCountIdleState 34
scalar OsgEarthNet.uav[16] utilizationFail 0
scalar OsgEarthNet.uav[16] simulationTime 259200
scalar OsgEarthNet.uav[17] utilizationSecMission 595.61789681617
scalar OsgEarthNet.uav[17] utilizationSecMaintenance 502.08255552328
scalar OsgEarthNet.uav[17] utilizationSecCharge 3760
scalar OsgEarthNet.uav[17] utilizationSecIdle 254342.29854766
scalar OsgEarthNet.uav[17] utilizationEnergyMission 2736.3124237061
scalar OsgEarthNet.uav[17] utilizationEnergyMaintenance 2304.2772636414
scalar OsgEarthNet.uav[17] utilizationEnergyCharge 5026.6967773438
scalar OsgEarthNet.uav[17] utilizationEnergyOverdrawMission 0
scalar OsgEarthNet.uav[17] utilizationEnergyOverdrawMaintenance 0
scalar OsgEarthNet.uav[17] utilizationCountMissions 1
scalar OsgEarthNet.uav[17] utilizationCountManeuversMission 10
scalar OsgEarthNet.uav[17] utilizationCountManeuversMaintenance 2
scalar OsgEarthNet.uav[17] utilizationCountChargeState 1
scalar OsgEarthNet.uav[17] utilizationCountOverdrawnAfterMission 0
scalar OsgEarthNet.uav[17] utilizationCountIdleState 2
scalar OsgEarthNet.uav[17] utilizationFail 0
scalar OsgEarthNet.uav[17] simulationTime 259200
scalar OsgEarthNet.uav[18] utilizationSecMission 12518.98576421
scalar OsgEarthNet.uav[18] utilizationSecMaintenance 8912.8425087496
scalar OsgEarthNet.uav[18] utilizationSecCharge 76280
scalar OsgEarthNet.uav[18] utilizationSecIdle 161488.17072704
scalar OsgEarthNet.uav[18] utilizationEnergyMission 59132.716915131
scalar OsgEarthNet.uav[18] utilizationEnergyMaintenance 41200.780231476
scalar OsgEarthNet.uav[18] utilizationEnergyCharge 100336.84960938
scalar OsgEarthNet.uav[18] utilizationEnergyOverdrawMission 0
scalar OsgEarthNet.uav[18] utilizationEnergyOverdrawMaintenance 0
scalar OsgEarthNet.uav[18] utilizationCountMissions 21
scalar OsgEarthNet.uav[18] utilizationCountManeuversMission 339
scalar OsgEarthNet.uav[18] utilizationCountManeuversMaintenance 42
scalar OsgEarthNet.uav[18] utilizationCountChargeState 21
scalar OsgEarthNet.uav[18] utilizationCountOverdrawnAfterMission 0
scalar OsgEarthNet.uav[18] utilizationCountIdleState 22
scalar OsgEarthNet.uav[18] utilizationFail 0
scalar OsgEarthNet.uav[18] simulationTime 259200
scalar OsgEarthNet.uav[19] utilizationSecMission 24766.995338519
scalar OsgEarthNet.uav[19] utilizationSecMaintenance 17144.133394991
scalar OsgEarthNet.uav[19] utilizationSecCharge 149988.82052459
scalar OsgEarthNet.uav[19] utilizationSecIdle 67300.049741899
scalar OsgEarthNet.uav[19] utilizationEnergyMission 119597.30413437
scalar OsgEarthNet.uav[19] utilizationEnergyMaintenance 80194.825298309
scalar OsgEarthNet.uav[19] utilizationEnergyCharge 199432.81787109
scalar OsgEarthNet.uav[19] utilizationEnergyOverdrawMission 0
scalar OsgEarthNet.uav[19] utilizationEnergyOverdrawMaintenance 94.324966430664
scalar OsgEarthNet.uav[19] utilizationCountMissions 41
scalar OsgEarthNet.uav[19] utilizationCountManeuversMission 710
scalar OsgEarthNet.uav[19] utilizationCountManeuversMaintenance 82
scalar OsgEarthNet.uav[19] utilizationCountChargeState 41
scalar OsgEarthNet.uav[19] utilizationCountOverdrawnAfterMission 1
scalar OsgEarthNet.uav[19] utilizationCountIdleState 41
scalar OsgEarthNet.uav[19] utilizationFail 0
scalar OsgEarthNet.uav[19] simulationTime 259200
scalar OsgEarthNet.uav[20] utilizationSecMission 22559.360425213
scalar OsgEarthNet.uav[20] utilizationSecMaintenance 16387.553885639
scalar OsgEarthNet.uav[20] utilizationSecCharge 138071.07668915
scalar OsgEarthNet.uav[20] utilizationSecIdle 82182.008
scalar OsgEarthNet.uav[20] utilizationEnergyMission 106704.49142075
scalar OsgEarthNet.uav[20] utilizationEnergyMaintenance 75877.068305969
scalar OsgEarthNet.uav[20] utilizationEnergyCharge 182748.81201172
scalar OsgEarthNet.uav[20] utilizationEnergyOverdrawMission 0
scalar OsgEarthNet.uav[20] utilizationEnergyOverdrawMaintenance 0
scalar OsgEarthNet.uav[20] utilizationCountMissions 38
scalar OsgEarthNet.uav[20] utilizationCountManeuversMission 614
scalar OsgEarthNet.uav[20] utilizationCountManeuversMaintenance 76
scalar OsgEarthNet.uav[20] utilizationCountChargeState 38
scalar OsgEarthNet.uav[20] utilizationCountOverdrawnAfterMission 0
scalar OsgEarthNet.uav[20] utilizationCountIdleState 38
scalar OsgEarthNet.uav[20] utilizationFail 0
scalar OsgEarthNet.uav[20] simulationTime 259200
scalar OsgEarthNet.uav[21] utilizationSecMission 471.54602343181
scalar OsgEarthNet.uav[21] utilizationSecMaintenance 533.41619395377
scalar OsgEarthNet.uav[21] utilizationSecCharge 3550
scalar OsgEarthNet.uav[21] utilizationSecIdle 254645.03678261
scalar OsgEarthNet.uav[21] utilizationEnergyMission 1959.0375518799
scalar OsgEarthNet.uav[21] utilizationEnergyMaintenance 2700.3104362488
scalar OsgEarthNet.uav[21] utilizationEnergyCharge 4659.3515625
scalar OsgEarthNet.uav[21] utilizationEnergyOverdrawMission 0
scalar OsgEarthNet.uav[21] utilizationEnergyOverdrawMaintenance 0
scalar OsgEarthNet.uav[21] utilizationCountMissions 1
scalar OsgEarthNet.uav[21] utilizationCountManeuversMission 7
scalar OsgEarthNet.uav[21] utilizationCountManeuversMaintenance 2
scalar OsgEarthNet.uav[21] utilizationCountChargeState 1
scalar OsgEarthNet.uav[21] utilizationCountOverdrawnAfterMission 0
scalar OsgEarthNet.uav[21] utilizationCountIdleState 2
scalar OsgEarthNet.uav[21] utilizationFail 0
scalar OsgEarthNet.uav[21] simulationTime 259200
scalar OsgEarthNet.uav[22] utilizationSecMission 28447.705617526
scalar OsgEarthNet.uav[22] utilizationSecMaintenance 20788.549684238
scalar OsgEarthNet.uav[22] utilizationSecCharge 173747.47492312
scalar OsgEarthNet.uav[22] utilizationSecIdle 36216.268775114
scalar OsgEarthNet.uav[22] utilizationEnergyMission 136859.47404861
scalar OsgEarthNet.uav[22] utilizationEnergyMaintenance 97037.794647217
scalar OsgEarthNet.uav[22] utilizationEnergyCharge 230389.79968262
scalar OsgEarthNet.uav[22] utilizationEnergyOverdrawMission 0
scalar OsgEarthNet.uav[22] utilizationEnergyOverdrawMaintenance 393.42785644531
scalar OsgEarthNet.uav[22] utilizationCountMissions 48
scalar OsgEarthNet.uav[22] utilizationCountManeuversMission 838
scalar OsgEarthNet.uav[22] utilizationCountManeuversMaintenance 96
scalar OsgEarthNet.uav[22] utilizationCountChargeState 48
scalar OsgEarthNet.uav[22] utilizationCountOverdrawnAfterMission 2
scalar OsgEarthNet.uav[22] utilizationCountIdleState 48
scalar OsgEarthNet.uav[22] utilizationFail 0
scalar OsgEarthNet.uav[22] simulationTime 259200
scalar OsgEarthNet.uav[23] utilizationSecMission 28640.562161845
scalar OsgEarthNet.uav[23] utilizationSecMaintenance 20204.054931952
scalar OsgEarthNet.uav[23] utilizationSecCharge 175200
scalar OsgEarthNet.uav[23] utilizationSecIdle 35155.381906203
scalar OsgEarthNet.uav[23] utilizationEnergyMission 138145.21890259
scalar OsgEarthNet.uav[23] utilizationEnergyMaintenance 93408.768405914
scalar OsgEarthNet.uav[23] utilizationEnergyCharge 231094.05566406
scalar OsgEarthNet.uav[23] utilizationEnergyOverdrawMission 0
scalar OsgEarthNet.uav[23] utilizationEnergyOverdrawMaintenance 0
scalar OsgEarthNet.uav[23] utilizationCountMissions 48
scalar OsgEarthNet.uav[23] utilizationCountManeuversMission 841
scalar OsgEarthNet.uav[23] utilizationCountManeuversMaintenance 96
scalar OsgEarthNet.uav[23] utilizationCountChargeState 48
scalar OsgEarthNet.uav[23] utilizationCountOverdrawnAfterMission 0
scalar OsgEarthNet.uav[23] utilizationCountIdleState 49
scalar OsgEarthNet.uav[23] utilizationFail 0
scalar OsgEarthNet.uav[23] simulationTime 259200
scalar OsgEarthNet.uav[24] utilizationSecMission 28012.605324307
scalar OsgEarthNet.uav[24] utilizationSecMaintenance 21750.829065361
scalar OsgEarthNet.uav[24] utilizationSecCharge 177755.51031898
scalar OsgEarthNet.uav[24] utilizationSecIdle 31681.054291356
scalar OsgEarthNet.uav[24] utilizationEnergyMission 136663.49958801
scalar OsgEarthNet.uav[24] utilizationEnergyMaintenance 101102.43576431
scalar OsgEarthNet.uav[24] utilizationEnergyCharge 235443.25146484
scalar OsgEarthNet.uav[24] utilizationEnergyOverdrawMission 0
scalar OsgEarthNet.uav[24] utilizationEnergyOverdrawMaintenance 0
scalar OsgEarthNet.uav[24] utilizationCountMissions 49
scalar OsgEarthNet.uav[24] utilizationCountManeuversMission 971
scalar OsgEarthNet.uav[24] utilizationCountManeuversMaintenance 98
scalar OsgEarthNet.uav[24] utilizationCountChargeState 49
scalar OsgEarthNet.uav[24] utilizationCountOverdrawnAfterMission 0
scalar OsgEarthNet.uav[24] utilizationCountIdleState 49
scalar OsgEarthNet.uav[24] utilizationFail 0
scalar OsgEarthNet.uav[24] simulationTime 259200
scalar OsgEarthNet.uav[25] utilizationSecMission 30674.805442262
scalar OsgEarthNet.uav[25] utilizationSecMaintenance 19288.621114219
scalar OsgEarthNet.uav[25] utilizationSecCharge 176654.57144352
scalar OsgEarthNet.uav[25] utilizationSecIdle 32582.001
scalar OsgEarthNet.uav[25] utilizationEnergyMission 148470.61604309
scalar OsgEarthNet.uav[25] utilizationEnergyMaintenance 88655.641399384
scalar OsgEarthNet.uav[25] utilizationEnergyCharge 233807.83276367
scalar OsgEarthNet.uav[25] utilizationEnergyOverdrawMission 0
scalar OsgEarthNet.uav[25] utilizationEnergyOverdrawMaintenance 14.878354072571
scalar OsgEarthNet.uav[25] utilizationCountMissions 49
scalar OsgEarthNet.uav[25] utilizationCountManeuversMission 965
scalar OsgEarthNet.uav[25] utilizationCountManeuversMaintenance 98
scalar OsgEarthNet.uav[25] utilizationCountChargeState 49
scalar OsgEarthNet.uav[25] utilizationCountOverdrawnAfterMission 1
scalar OsgEarthNet.uav[25] utilizationCountIdleState 49
scalar OsgEarthNet.uav[25] utilizationFail 0
scalar OsgEarthNet.uav[25] simulationTime 259200
scalar OsgEarthNet.uav[26] utilizationSecMission 23908.021206136
scalar OsgEarthNet.uav[26] utilizationSecMaintenance 18046.226008573
scalar OsgEarthNet.uav[26] utilizationSecCharge 150860
scalar OsgEarthNet.uav[26] utilizationSecIdle 66385.751785291
scalar OsgEarthNet.uav[26] utilizationEnergyMission 115525.40206146
scalar OsgEarthNet.uav[26] utilizationEnergyMaintenance 84473.194858551
scalar OsgEarthNet.uav[26] utilizationEnergyCharge 199426.71582031
scalar OsgEarthNet.uav[26] utilizationEnergyOverdrawMission 0
scalar OsgEarthNet.uav[26] utilizationEnergyOverdrawMaintenance 377.34609603882
scalar OsgEarthNet.uav[26] utilizationCountMissions 41
scalar OsgEarthNet.uav[26] utilizationCountManeuversMission 711
scalar OsgEarthNet.uav[26] utilizationCountManeuversMaintenance 82
scalar OsgEarthNet.uav[26] utilizationCountChargeState 41
scalar OsgEarthNet.uav[26] utilizationCountOverdrawnAfterMission 5
scalar OsgEarthNet.uav[26] utilizationCountIdleState 42
scalar OsgEarthNet.uav[26] utilizationFail 0
scalar OsgEarthNet.uav[26] simulationTime 259200
scalar OsgEarthNet.uav[27] utilizationSecMission 631.74159133852
scalar OsgEarthNet.uav[27] utilizationSecMaintenance 414.50798074032
scalar OsgEarthNet.uav[27] utilizationSecCharge 3690
scalar OsgEarthNet.uav[27] utilizationSecIdle 254463.74942792
scalar OsgEarthNet.uav[27] utilizationEnergyMission 2910.9419021606
scalar OsgEarthNet.uav[27] utilizationEnergyMaintenance 2000.2090072632
scalar OsgEarthNet.uav[27] utilizationEnergyCharge 4911.1538085938
scalar OsgEarthNet.uav[27] utilizationEnergyOverdrawMission 0
scalar OsgEarthNet.uav[27] utilizationEnergyOverdrawMaintenance 0
scalar OsgEarthNet.uav[27] utilizationCountMissions 1
scalar OsgEarthNet.uav[27] utilizationCountManeuversMission 12
scalar OsgEarthNet.uav[27] utilizationCountManeuversMaintenance 2
scalar OsgEarthNet.uav[27] utilizationCountChargeState 1
scalar OsgEarthNet.uav[27] utilizationCountOverdrawnAfterMission 0
scalar OsgEarthNet.uav[27] utilizationCountIdleState 2
scalar OsgEarthNet.uav[27] utilizationFail 0
scalar OsgEarthNet.uav[27] simulationTime 259200
scalar OsgEarthNet.uav[28] utilizationSecMission 694.00169469977
scalar OsgEarthNet.uav[28] utilizationSecMaintenance 338.49695459722
scalar OsgEarthNet.uav[28] utilizationSecCharge 3780
scalar OsgEarthNet.uav[28] utilizationSecIdle 254387.5003507
scalar OsgEarthNet.uav[28] utilizationEnergyMission 3282.8762817383
scalar OsgEarthNet.uav[28] utilizationEnergyMaintenance 1686.2407341003
scalar OsgEarthNet.uav[28] utilizationEnergyCharge 4958.318359375
scalar OsgEarthNet.uav[28] utilizationEnergyOverdrawMission 0
scalar OsgEarthNet.uav[28] utilizationEnergyOverdrawMaintenance 0
scalar OsgEarthNet.uav[28] utilizationCountMissions 1
scalar OsgEarthNet.uav[28] utilizationCountManeuversMission 13
scalar OsgEarthNet.uav[28] utilizationCountManeuversMaintenance 2
scalar OsgEarthNet.uav[28] utilizationCountChargeState 1
scalar OsgEarthNet.uav[28] utilizationCountOverdrawnAfterMission 0
scalar OsgEarthNet.uav[28] utilizationCountIdleState 2
scalar OsgEarthNet.uav[28] utilizationFail 0
scalar OsgEarthNet.uav[28] simulationTime 259200
scalar OsgEarthNet.uav[29] utilizationSecMission 650.68693590098
scalar OsgEarthNet.uav[29] utilizationSecMaintenance 350.31285707965
scalar OsgEarthNet.uav[29] utilizationSecCharge 3580
scalar OsgEarthNet.uav[29] utilizationSecIdle 254618.99920702
scalar OsgEarthNet.uav[29] utilizationEnergyMission 3018.7579650879
scalar OsgEarthNet.uav[29] utilizationEnergyMaintenance 1684.9622116089
scalar OsgEarthNet.uav[29] utilizationEnergyCharge 4703.720703125
scalar OsgEarthNet.uav[29] utilizationEnergyOverdrawMission 0
scalar OsgEarthNet.uav[29] utilizationEnergyOverdrawMaintenance 0
scalar OsgEarthNet.uav[29] utilizationCountMissions 1
scalar OsgEarthNet.uav[29] utilizationCountManeuversMission 9
scalar OsgEarthNet.uav[29] utilizationCountManeuversMaintenance 2
scalar OsgEarthNet.uav[29] utilizationCountChargeState 1
scalar OsgEarthNet.uav[29] utilizationCountOverdrawnAfterMission 0
scalar OsgEarthNet.uav[29] utilizationCountIdleState 2
scalar OsgEarthNet.uav[29] utilizationFail 0
scalar OsgEarthNet.uav[29] simulationTime 259200
scalar OsgEarthNet.uav[30] utilizationSecMission 25732.535064473
scalar OsgEarthNet.uav[30] utilizationSecMaintenance 20029.840005158
scalar OsgEarthNet.uav[30] utilizationSecCharge 165150
scalar OsgEarthNet.uav[30] utilizationSecIdle 48287.623930369
scalar OsgEarthNet.uav[30] utilizationEnergyMission 123614.58534241
scalar OsgEarthNet.uav[30] utilizationEnergyMaintenance 94155.063873291
scalar OsgEarthNet.uav[30] utilizationEnergyCharge 218217.49560547
scalar OsgEarthNet.uav[30] utilizationEnergyOverdrawMission 0
scalar OsgEarthNet.uav[30] utilizationEnergyOverdrawMaintenance 452.44006347656
scalar OsgEarthNet.uav[30] utilizationCountMissions 45
scalar OsgEarthNet.uav[30] utilizationCountManeuversMission 794
scalar OsgEarthNet.uav[30] utilizationCountManeuversMaintenance 90
scalar OsgEarthNet.uav[30] utilizationCountChargeState 45
scalar OsgEarthNet.uav[30] utilizationCountOverdrawnAfterMission 2
scalar OsgEarthNet.uav[30] utilizationCountIdleState 46
scalar OsgEarthNet.uav[30] utilizationFail 0
scalar OsgEarthNet.uav[30] simulationTime 259200
scalar OsgEarthNet.uav[31] utilizationSecMission 28945.84030269
scalar OsgEarthNet.uav[31] utilizationSecMaintenance 19567.526389696
scalar OsgEarthNet.uav[31] utilizationSecCharge 173185.57750888
scalar OsgEarthNet.uav[31] utilizationSecIdle 37501.054798739
scalar OsgEarthNet.uav[31] utilizationEnergyMission 140728.32030106
scalar OsgEarthNet.uav[31] utilizationEnergyMaintenance 90266.892299652
scalar OsgEarthNet.uav[31] utilizationEnergyCharge 229259.72967529
scalar OsgEarthNet.uav[31] utilizationEnergyOverdrawMission 0
scalar OsgEarthNet.uav[31] utilizationEnergyOverdrawMaintenance 0
scalar OsgEarthNet.uav[31] utilizationCountMissions 48
scalar OsgEarthNet.uav[31] utilizationCountManeuversMission 972
scalar OsgEarthNet.uav[31] utilizationCountManeuversMaintenance 96
scalar OsgEarthNet.uav[31] utilizationCountChargeState 48
scalar OsgEarthNet.uav[31] utilizationCountOverdrawnAfterMission 0
scalar OsgEarthNet.uav[31] utilizationCountIdleState 48
scalar OsgEarthNet.uav[31] utilizationFail 0
scalar OsgEarthNet.uav[31] simulationTime 259200
scalar OsgEarthNet.uav[32] utilizationSecMission 9558.2725801717
scalar OsgEarthNet.uav[32] utilizationSecMaintenance 5970.9656799704
scalar OsgEarthNet.uav[32] utilizationSecCharge 55310
scalar OsgEarthNet.uav[32] utilizationSecIdle 188360.76073986
scalar OsgEarthNet.uav[32] utilizationEnergyMission 45468.191028595
scalar OsgEarthNet.uav[32] utilizationEnergyMaintenance 28124.075439453
scalar OsgEarthNet.uav[32] utilizationEnergyCharge 73054.330078125
scalar OsgEarthNet.uav[32] utilizationEnergyOverdrawMission 0
scalar OsgEarthNet.uav[32] utilizationEnergyOverdrawMaintenance 0
scalar OsgEarthNet.uav[32] utilizationCountMissions 15
scalar OsgEarthNet.uav[32] utilizationCountManeuversMission 213
scalar OsgEarthNet.uav[32] utilizationCountManeuversMaintenance 30
scalar OsgEarthNet.uav[32] utilizationCountChargeState 15
scalar OsgEarthNet.uav[32] utilizationCountOverdrawnAfterMission 0
scalar OsgEarthNet.uav[32] utilizationCountIdleState 16
scalar OsgEarthNet.uav[32] utilizationFail 0
scalar OsgEarthNet.uav[32] simulationTime 259200
scalar OsgEarthNet.uav[33] utilizationSecMission 27361.889817226
scalar OsgEarthNet.uav[33] utilizationSecMaintenance 20351.80419314
scalar OsgEarthNet.uav[33] utilizationSecCharge 171840
scalar OsgEarthNet.uav[33] utilizationSecIdle 39646.304989634
scalar OsgEarthNet.uav[33] utilizationEnergyMission 132681.84582138
scalar OsgEarthNet.uav[33] utilizationEnergyMaintenance 94982.63105011
scalar OsgEarthNet.uav[33] utilizationEnergyCharge 227196.00488281
scalar OsgEarthNet.uav[33] utilizationEnergyOverdrawMission 0
scalar OsgEarthNet.uav[33] utilizationEnergyOverdrawMaintenance 21.003314971924
scalar OsgEarthNet.uav[33] utilizationCountMissions 47
scalar OsgEarthNet.uav[33] utilizationCountManeuversMission 837
scalar OsgEarthNet.uav[33] utilizationCountManeuversMaintenance 94
scalar OsgEarthNet.uav[33] utilizationCountChargeState 47
scalar OsgEarthNet.uav[33] utilizationCountOverdrawnAfterMission 1
scalar OsgEarthNet.uav[33] utilizationCountIdleState 48
scalar OsgEarthNet.uav[33] utilizationFail 0
scalar OsgEarthNet.uav[33] simulationTime 259200
scalar OsgEarthNet.uav[34] utilizationSecMission 420
scalar OsgEarthNet.uav[34] utilizationSecMaintenance 507.16988087142
scalar OsgEarthNet.uav[34] utilizationSecCharge 3420
scalar OsgEarthNet.uav[34] utilizationSecIdle 254852.82911913
scalar OsgEarthNet.uav[34] utilizationEnergyMission 2070.3714561462
scalar OsgEarthNet.uav[34] utilizationEnergyMaintenance 2358.1425895691
scalar OsgEarthNet.uav[34] utilizationEnergyCharge 4345.54296875
scalar OsgEarthNet.uav[34] utilizationEnergyOverdrawMission 0
scalar OsgEarthNet.uav[34] utilizationEnergyOverdrawMaintenance 0
scalar OsgEarthNet.uav[34] utilizationCountMissions 1
scalar OsgEarthNet.uav[34] utilizationCountManeuversMission 21
scalar OsgEarthNet.uav[34] utilizationCountManeuversMaintenance 2
scalar OsgEarthNet.uav[34] utilizationCountChargeState 1
scalar OsgEarthNet.uav[34] utilizationCountOverdrawnAfterMission 0
scalar OsgEarthNet.uav[34] utilizationCountIdleState 2
scalar OsgEarthNet.uav[34] utilizationFail 0
scalar OsgEarthNet.uav[34] simulationTime 259200
scalar OsgEarthNet.uav[35] utilizationSecMission 26778.477243441
scalar OsgEarthNet.uav[35] utilizationSecMaintenance 20335.873033344
scalar OsgEarthNet.uav[35] utilizationSecCharge 170058.19845918
scalar OsgEarthNet.uav[35] utilizationSecIdle 42027.450264031
scalar OsgEarthNet.uav[35] utilizationEnergyMission 132684.23514175
scalar OsgEarthNet.uav[35] utilizationEnergyMaintenance 94633.605136871
scalar OsgEarthNet.uav[35] utilizationEnergyCharge 224990.07629395
scalar OsgEarthNet.uav[35] utilizationEnergyOverdrawMission 0
scalar OsgEarthNet.uav[35] utilizationEnergyOverdrawMaintenance 66.933006286621
scalar OsgEarthNet.uav[35] utilizationCountMissions 47
scalar OsgEarthNet.uav[35] utilizationCountManeuversMission 932
scalar OsgEarthNet.uav[35] utilizationCountManeuversMaintenance 94
scalar OsgEarthNet.uav[35] utilizationCountChargeState 47
scalar OsgEarthNet.uav[35] utilizationCountOverdrawnAfterMission 1
scalar OsgEarthNet.uav[35] utilizationCountIdleState 47
scalar OsgEarthNet.uav[35] utilizationFail 0
scalar OsgEarthNet.uav[35] simulationTime 259200
scalar OsgEarthNet.uav[36] utilizationSecMission 24242.168564182
scalar OsgEarthNet.uav[36] utilizationSecMaintenance 17926.859621679
scalar OsgEarthNet.uav[36] utilizationSecCharge 152858.96381414
scalar OsgEarthNet.uav[36] utilizationSecIdle 64172.007
scalar OsgEarthNet.uav[36] utilizationEnergyMission 119648.09597778
scalar OsgEarthNet.uav[36] utilizationEnergyMaintenance 83544.588821411
scalar OsgEarthNet.uav[36] utilizationEnergyCharge 202008.40625
scalar OsgEarthNet.uav[36] utilizationEnergyOverdrawMission 0
scalar OsgEarthNet.uav[36] utilizationEnergyOverdrawMaintenance 0
scalar OsgEarthNet.uav[36] utilizationCountMissions 42
scalar OsgEarthNet.uav[36] utilizationCountManeuversMission 882
scalar OsgEarthNet.uav[36] utilizationCountManeuversMaintenance 84
scalar OsgEarthNet.uav[36] utilizationCountChargeState 42
scalar OsgEarthNet.uav[36] utilizationCountOverdrawnAfterMission 0
scalar OsgEarthNet.uav[36] utilizationCountIdleState 42
scalar OsgEarthNet.uav[36] utilizationFail 0
scalar OsgEarthNet.uav[36] simulationTime 259200
scalar OsgEarthNet.uav[37] utilizationSecMission 26856.091410372
scalar OsgEarthNet.uav[37] utilizationSecMaintenance 19566.48116626
scalar OsgEarthNet.uav[37] utilizationSecCharge 167000
scalar OsgEarthNet.uav[37] utilizationSecIdle 45777.426423368
scalar OsgEarthNet.uav[37] utilizationEnergyMission 131688.75664139
scalar OsgEarthNet.uav[37] utilizationEnergyMaintenance 91204.979839325
scalar OsgEarthNet.uav[37] utilizationEnergyCharge 219584.3828125
scalar OsgEarthNet.uav[37] utilizationEnergyOverdrawMission 0
scalar OsgEarthNet.uav[37] utilizationEnergyOverdrawMaintenance 0
scalar OsgEarthNet.uav[37] utilizationCountMissions 46
scalar OsgEarthNet.uav[37] utilizationCountManeuversMission 913
scalar OsgEarthNet.uav[37] utilizationCountManeuversMaintenance 92
scalar OsgEarthNet.uav[37] utilizationCountChargeState 46
scalar OsgEarthNet.uav[37] utilizationCountOverdrawnAfterMission 0
scalar OsgEarthNet.uav[37] utilizationCountIdleState 47
scalar OsgEarthNet.uav[37] utilizationFail 0
scalar OsgEarthNet.uav[37] simulationTime 259200
scalar OsgEarthNet.uav[38] utilizationSecMission 29114.450151373
scalar OsgEarthNet.uav[38] utilizationSecMaintenance 20661.287324046
scalar OsgEarthNet.uav[38] utilizationSecCharge 179122.26052458
scalar OsgEarthNet.uav[38] utilizationSecIdle 30302.001
scalar OsgEarthNet.uav[38] utilizationEnergyMission 143160.09271622
scalar OsgEarthNet.uav[38] utilizationEnergyMaintenance 95878.023586273
scalar OsgEarthNet.uav[38] utilizationEnergyCharge 237019.42089844
scalar OsgEarthNet.uav[38] utilizationEnergyOverdrawMission 0
scalar OsgEarthNet.uav[38] utilizationEnergyOverdrawMaintenance 5.1978302001953
scalar OsgEarthNet.uav[38] utilizationCountMissions 49
scalar OsgEarthNet.uav[38] utilizationCountManeuversMission 1030
scalar OsgEarthNet.uav[38] utilizationCountManeuversMaintenance 98
scalar OsgEarthNet.uav[38] utilizationCountChargeState 49
scalar OsgEarthNet.uav[38] utilizationCountOverdrawnAfterMission 2
scalar OsgEarthNet.uav[38] utilizationCountIdleState 49
scalar OsgEarthNet.uav[38] utilizationFail 0
scalar OsgEarthNet.uav[38] simulationTime 259200
scalar OsgEarthNet.uav[39] utilizationSecMission 14023.48699425
scalar OsgEarthNet.uav[39] utilizationSecMaintenance 11537.221478744
scalar OsgEarthNet.uav[39] utilizationSecCharge 91950
scalar OsgEarthNet.uav[39] utilizationSecIdle 141689.29052701
scalar OsgEarthNet.uav[39] utilizationEnergyMission 67183.391044617
scalar OsgEarthNet.uav[39] utilizationEnergyMaintenance 54349.111026764
scalar OsgEarthNet.uav[39] utilizationEnergyCharge 121542.70458984
scalar OsgEarthNet.uav[39] utilizationEnergyOverdrawMission 0
scalar OsgEarthNet.uav[39] utilizationEnergyOverdrawMaintenance 65.706077575684
scalar OsgEarthNet.uav[39] utilizationCountMissions 25
scalar OsgEarthNet.uav[39] utilizationCountManeuversMission 380
scalar OsgEarthNet.uav[39] utilizationCountManeuversMaintenance 50
scalar OsgEarthNet.uav[39] utilizationCountChargeState 25
scalar OsgEarthNet.uav[39] utilizationCountOverdrawnAfterMission 1
scalar OsgEarthNet.uav[39] utilizationCountIdleState 26
scalar OsgEarthNet.uav[39] utilizationFail 0
scalar OsgEarthNet.uav[39] simulationTime 259200
scalar OsgEarthNet.uav[40] utilizationSecMission 30228.545337311
scalar OsgEarthNet.uav[40] utilizationSecMaintenance 19871.630635336
scalar OsgEarthNet.uav[40] utilizationSecCharge 178017.82302735
scalar OsgEarthNet.uav[40] utilizationSecIdle 31082
scalar OsgEarthNet.uav[40] utilizationEnergyMission 146333.76954823
scalar OsgEarthNet.uav[40] utilizationEnergyMaintenance 94477.223876953
scalar OsgEarthNet.uav[40] utilizationEnergyCharge 236259.45159912
scalar OsgEarthNet.uav[40] utilizationEnergyOverdrawMission 0
scalar OsgEarthNet.uav[40] utilizationEnergyOverdrawMaintenance 42.600134849548
scalar OsgEarthNet.uav[40] utilizationCountMissions 49
scalar OsgEarthNet.uav[40] utilizationCountManeuversMission 949
scalar OsgEarthNet.uav[40] utilizationCountManeuversMaintenance 97
scalar OsgEarthNet.uav[40] utilizationCountChargeState 49
scalar OsgEarthNet.uav[40] utilizationCountOverdrawnAfterMission 2
scalar OsgEarthNet.uav[40] utilizationCountIdleState 49
scalar OsgEarthNet.uav[40] utilizationFail 0
scalar OsgEarthNet.uav[40] simulationTime 259200
scalar OsgEarthNet.uav[41] utilizationSecMission 621.17604176187
scalar OsgEarthNet.uav[41] utilizationSecMaintenance 378.2815995389
scalar OsgEarthNet.uav[41] utilizationSecCharge 3570
scalar OsgEarthNet.uav[41] utilizationSecIdle 254630.5413587
scalar OsgEarthNet.uav[41] utilizationEnergyMission 2865.5250701904
scalar OsgEarthNet.uav[41] utilizationEnergyMaintenance 1812.018321991
scalar OsgEarthNet.uav[41] utilizationEnergyCharge 4677.5419921875
scalar OsgEarthNet.uav[41] utilizationEnergyOverdrawMission 0
scalar OsgEarthNet.uav[41] utilizationEnergyOverdrawMaintenance 0
scalar OsgEarthNet.uav[41] utilizationCountMissions 1
scalar OsgEarthNet.uav[41] utilizationCountManeuversMission 12
scalar OsgEarthNet.uav[41] utilizationCountManeuversMaintenance 2
scalar OsgEarthNet.uav[41] utilizationCountChargeState 1
scalar OsgEarthNet.uav[41] utilizationCountOverdrawnAfterMission 0
scalar OsgEarthNet.uav[41] utilizationCountIdleState 2
scalar OsgEarthNet.uav[41] utilizationFail 0
scalar OsgEarthNet.uav[41] simulationTime 259200
scalar OsgEarthNet.uav[42] utilizationSecMission 3703.5333830912
scalar OsgEarthNet.uav[42] utilizationSecMaintenance 1370.6359658347
scalar OsgEarthNet.uav[42] utilizationSecCharge 18410
scalar OsgEarthNet.uav[42] utilizationSecIdle 235715.82965107
scalar OsgEarthNet.uav[42] utilizationEnergyMission 17609.219142914
scalar OsgEarthNet.uav[42] utilizationEnergyMaintenance 6385.0956077576
scalar OsgEarthNet.uav[42] utilizationEnergyCharge 24369.458496094
scalar OsgEarthNet.uav[42] utilizationEnergyOverdrawMission 0
scalar OsgEarthNet.uav[42] utilizationEnergyOverdrawMaintenance 0
scalar OsgEarthNet.uav[42] utilizationCountMissions 5
scalar OsgEarthNet.uav[42] utilizationCountManeuversMission 96
scalar OsgEarthNet.uav[42] utilizationCountManeuversMaintenance 10
scalar OsgEarthNet.uav[42] utilizationCountChargeState 5
scalar OsgEarthNet.uav[42] utilizationCountOverdrawnAfterMission 0
scalar OsgEarthNet.uav[42] utilizationCountIdleState 6
scalar OsgEarthNet.uav[42] utilizationFail 0
scalar OsgEarthNet.uav[42] simulationTime 259200
scalar OsgEarthNet.uav[43] utilizationSecMission 750.20472747825
scalar OsgEarthNet.uav[43] utilizationSecMaintenance 373.25723311718
scalar OsgEarthNet.uav[43] utilizationSecCharge 3660
scalar OsgEarthNet.uav[43] utilizationSecIdle 254416.5370394
scalar OsgEarthNet.uav[43] utilizationEnergyMission 3207.0531616211
scalar OsgEarthNet.uav[43] utilizationEnergyMaintenance 1621.041343689
scalar OsgEarthNet.uav[43] utilizationEnergyCharge 4828.0952148438
scalar OsgEarthNet.uav[43] utilizationEnergyOverdrawMission 0
scalar OsgEarthNet.uav[43] utilizationEnergyOverdrawMaintenance 0
scalar OsgEarthNet.uav[43] utilizationCountMissions 1
scalar OsgEarthNet.uav[43] utilizationCountManeuversMission 11
scalar OsgEarthNet.uav[43] utilizationCountManeuversMaintenance 2
scalar OsgEarthNet.uav[43] utilizationCountChargeState 1
scalar OsgEarthNet.uav[43] utilizationCountOverdrawnAfterMission 0
scalar OsgEarthNet.uav[43] utilizationCountIdleState 2
scalar OsgEarthNet.uav[43] utilizationFail 0
scalar OsgEarthNet.uav[43] simulationTime 259200
scalar OsgEarthNet.uav[44] utilizationSecMission 26325.041561797
scalar OsgEarthNet.uav[44] utilizationSecMaintenance 21608.411917197
scalar OsgEarthNet.uav[44] utilizationSecCharge 170510
scalar OsgEarthNet.uav[44] utilizationSecIdle 40756.545521006
scalar OsgEarthNet.uav[44] utilizationEnergyMission 127794.27829742
scalar OsgEarthNet.uav[44] utilizationEnergyMaintenance 100121.25023109
scalar OsgEarthNet.uav[44] utilizationEnergyCharge 224483.94238281
scalar OsgEarthNet.uav[44] utilizationEnergyOverdrawMission 0
scalar OsgEarthNet.uav[44] utilizationEnergyOverdrawMaintenance 0
scalar OsgEarthNet.uav[44] utilizationCountMissions 47
scalar OsgEarthNet.uav[44] utilizationCountManeuversMission 870
scalar OsgEarthNet.uav[44] utilizationCountManeuversMaintenance 95
scalar OsgEarthNet.uav[44] utilizationCountChargeState 47
scalar OsgEarthNet.uav[44] utilizationCountOverdrawnAfterMission 0
scalar OsgEarthNet.uav[44] utilizationCountIdleState 48
scalar OsgEarthNet.uav[44] utilizationFail 0
scalar OsgEarthNet.uav[44] simulationTime 259200
scalar OsgEarthNet.uav[45] utilizationSecMission 28479.456520795
scalar OsgEarthNet.uav[45] utilizationSecMaintenance 21292.579849934
scalar OsgEarthNet.uav[45] utilizationSecCharge 179550
scalar OsgEarthNet.uav[45] utilizationSecIdle 29877.962629271
scalar OsgEarthNet.uav[45] utilizationEnergyMission 139403.56437302
scalar OsgEarthNet.uav[45] utilizationEnergyMaintenance 99096.360729217
scalar OsgEarthNet.uav[45] utilizationEnergyCharge 236655.78710938
scalar OsgEarthNet.uav[45] utilizationEnergyOverdrawMission 0
scalar OsgEarthNet.uav[45] utilizationEnergyOverdrawMaintenance 0
scalar OsgEarthNet.uav[45] utilizationCountMissions 49
scalar OsgEarthNet.uav[45] utilizationCountManeuversMission 970
scalar OsgEarthNet.uav[45] utilizationCountManeuversMaintenance 98
scalar OsgEarthNet.uav[45] utilizationCountChargeState 49
scalar OsgEarthNet.uav[45] utilizationCountOverdrawnAfterMission 0
scalar OsgEarthNet.uav[45] utilizationCountIdleState 50
scalar OsgEarthNet.uav[45] utilizationFail 0
scalar OsgEarthNet.uav[45] simulationTime 259200
scalar OsgEarthNet.uav[46] utilizationSecMission 22874.597114329
scalar OsgEarthNet.uav[46] utilizationSecMaintenance 17325.770218049
scalar OsgEarthNet.uav[46] utilizationSecCharge 143142.44218123
scalar OsgEarthNet.uav[46] utilizationSecIdle 75857.189486394
scalar OsgEarthNet.uav[46] utilizationEnergyMission 109320.43442917
scalar OsgEarthNet.uav[46] utilizationEnergyMaintenance 80918.305179596
scalar OsgEarthNet.uav[46] utilizationEnergyCharge 189411.12939453
scalar OsgEarthNet.uav[46] utilizationEnergyOverdrawMission 0
scalar OsgEarthNet.uav[46] utilizationEnergyOverdrawMaintenance 0
scalar OsgEarthNet.uav[46] utilizationCountMissions 39
scalar OsgEarthNet.uav[46] utilizationCountManeuversMission 610
scalar OsgEarthNet.uav[46] utilizationCountManeuversMaintenance 78
scalar OsgEarthNet.uav[46] utilizationCountChargeState 39
scalar OsgEarthNet.uav[46] utilizationCountOverdrawnAfterMission 0
scalar OsgEarthNet.uav[46] utilizationCountIdleState 39
scalar OsgEarthNet.uav[46] utilizationFail 0
scalar OsgEarthNet.uav[46] simulationTime 259200
scalar OsgEarthNet.uav[47] utilizationSecMission 18235.591831989
scalar OsgEarthNet.uav[47] utilizationSecMaintenance 14903.36263172
scalar OsgEarthNet.uav[47] utilizationSecCharge 119890
scalar OsgEarthNet.uav[47] utilizationSecIdle 106171.04453629
scalar OsgEarthNet.uav[47] utilizationEnergyMission 90029.055496216
scalar OsgEarthNet.uav[47] utilizationEnergyMaintenance 69031.211685181
scalar OsgEarthNet.uav[47] utilizationEnergyCharge 157588.86425781
scalar OsgEarthNet.uav[47] utilizationEnergyOverdrawMission 0
scalar OsgEarthNet.uav[47] utilizationEnergyOverdrawMaintenance 0
scalar OsgEarthNet.uav[47] utilizationCountMissions 33
scalar OsgEarthNet.uav[47] utilizationCountManeuversMission 626
scalar OsgEarthNet.uav[47] utilizationCountManeuversMaintenance 66
scalar OsgEarthNet.uav[47] utilizationCountChargeState 33
scalar OsgEarthNet.uav[47] utilizationCountOverdrawnAfterMission 0
scalar OsgEarthNet.uav[47] utilizationCountIdleState 34
scalar OsgEarthNet.uav[47] utilizationFail 0
scalar OsgEarthNet.uav[47] simulationTime 259200
scalar OsgEarthNet.uav[48] utilizationSecMission 30167.611863685
scalar OsgEarthNet.uav[48] utilizationSecMaintenance 20570.387136315
scalar OsgEarthNet.uav[48] utilizationSecCharge 179890
scalar OsgEarthNet.uav[48] utilizationSecIdle 28572
scalar OsgEarthNet.uav[48] utilizationEnergyMission 146145.00281906
scalar OsgEarthNet.uav[48] utilizationEnergyMaintenance 94325.824053012
scalar OsgEarthNet.uav[48] utilizationEnergyCharge 237693.78027344
scalar OsgEarthNet.uav[48] utilizationEnergyOverdrawMission 0
scalar OsgEarthNet.uav[48] utilizationEnergyOverdrawMaintenance 33.989822387695
scalar OsgEarthNet.uav[48] utilizationCountMissions 49
scalar OsgEarthNet.uav[48] utilizationCountManeuversMission 906
scalar OsgEarthNet.uav[48] utilizationCountManeuversMaintenance 99
scalar OsgEarthNet.uav[48] utilizationCountChargeState 49
scalar OsgEarthNet.uav[48] utilizationCountOverdrawnAfterMission 2
scalar OsgEarthNet.uav[48] utilizationCountIdleState 50
scalar OsgEarthNet.uav[48] utilizationFail 0
scalar OsgEarthNet.uav[48] simulationTime 259200
scalar OsgEarthNet.uav[49] utilizationSecMission 1296.1485778244
scalar OsgEarthNet.uav[49] utilizationSecMaintenance 750.89109986285
scalar OsgEarthNet.uav[49] utilizationSecCharge 7100
scalar OsgEarthNet.uav[49] utilizationSecIdle 250052.95932231
scalar OsgEarthNet.uav[49] utilizationEnergyMission 6051.7059249878
scalar OsgEarthNet.uav[49] utilizationEnergyMaintenance 3527.3230018616
scalar OsgEarthNet.uav[49] utilizationEnergyCharge 9306.9409179688
scalar OsgEarthNet.uav[49] utilizationEnergyOverdrawMission 0
scalar OsgEarthNet.uav[49] utilizationEnergyOverdrawMaintenance 0
scalar OsgEarthNet.uav[49] utilizationCountMissions 2
scalar OsgEarthNet.uav[49] utilizationCountManeuversMission 20
scalar OsgEarthNet.uav[49] utilizationCountManeuversMaintenance 4
scalar OsgEarthNet.uav[49] utilizationCountChargeState 2
scalar OsgEarthNet.uav[49] utilizationCountOverdrawnAfterMission 0
scalar OsgEarthNet.uav[49] utilizationCountIdleState 3
scalar OsgEarthNet.uav[49] utilizationFail 0
scalar OsgEarthNet.uav[49] simulationTime 259200
scalar OsgEarthNet.uav[50] utilizationSecMission 2588.7180444695
scalar OsgEarthNet.uav[50] utilizationSecMaintenance 2573.4019479141
scalar OsgEarthNet.uav[50] utilizationSecCharge 15130.669328638
scalar OsgEarthNet.uav[50] utilizationSecIdle 238907.20967898
scalar OsgEarthNet.uav[50] utilizationEnergyMission 12949.952590942
scalar OsgEarthNet.uav[50] utilizationEnergyMaintenance 11753.442653656
scalar OsgEarthNet.uav[50] utilizationEnergyCharge 20353.27911377
scalar OsgEarthNet.uav[50] utilizationEnergyOverdrawMission 0
scalar OsgEarthNet.uav[50] utilizationEnergyOverdrawMaintenance 0
scalar OsgEarthNet.uav[50] utilizationCountMissions 5
scalar OsgEarthNet.uav[50] utilizationCountManeuversMission 96
scalar OsgEarthNet.uav[50] utilizationCountManeuversMaintenance 10
scalar OsgEarthNet.uav[50] utilizationCountChargeState 5
scalar OsgEarthNet.uav[50] utilizationCountOverdrawnAfterMission 0
scalar OsgEarthNet.uav[50] utilizationCountIdleState 4
scalar OsgEarthNet.uav[50] utilizationFail 0
scalar OsgEarthNet.uav[50] simulationTime 259200
scalar OsgEarthNet.uav[51] utilizationSecMission 5849.456055982
scalar OsgEarthNet.uav[51] utilizationSecMaintenance 4528.2582366602
scalar OsgEarthNet.uav[51] utilizationSecCharge 33946.838618667
scalar OsgEarthNet.uav[51] utilizationSecIdle 214875.44608869
scalar OsgEarthNet.uav[51] utilizationEnergyMission 28065.880939484
scalar OsgEarthNet.uav[51] utilizationEnergyMaintenance 20990.106010437
scalar OsgEarthNet.uav[51] utilizationEnergyCharge 45298.74017334
scalar OsgEarthNet.uav[51] utilizationEnergyOverdrawMission 0
scalar OsgEarthNet.uav[51] utilizationEnergyOverdrawMaintenance 0
scalar OsgEarthNet.uav[51] utilizationCountMissions 10
scalar OsgEarthNet.uav[51] utilizationCountManeuversMission 156
scalar OsgEarthNet.uav[51] utilizationCountManeuversMaintenance 20
scalar OsgEarthNet.uav[51] utilizationCountChargeState 10
scalar OsgEarthNet.uav[51] utilizationCountOverdrawnAfterMission 0
scalar OsgEarthNet.uav[51] utilizationCountIdleState 10
scalar OsgEarthNet.uav[51] utilizationFail 0
scalar OsgEarthNet.uav[51] simulationTime 259200
scalar OsgEarthNet.uav[52] utilizationSecMission 26544.584741491
scalar OsgEarthNet.uav[52] utilizationSecMaintenance 20175.846221048
scalar OsgEarthNet.uav[52] utilizationSecCharge 168160.39292705
scalar OsgEarthNet.uav[52] utilizationSecIdle 44319.175110411
scalar OsgEarthNet.uav[52] utilizationEnergyMission 129705.61376953
scalar OsgEarthNet.uav[52] utilizationEnergyMaintenance 94237.271453857
scalar OsgEarthNet.uav[52] utilizationEnergyCharge 223622.39746094
scalar OsgEarthNet.uav[52] utilizationEnergyOverdrawMission 0
scalar OsgEarthNet.uav[52] utilizationEnergyOverdrawMaintenance 188.8443145752
scalar OsgEarthNet.uav[52] utilizationCountMissions 46
scalar OsgEarthNet.uav[52] utilizationCountManeuversMission 835
scalar OsgEarthNet.uav[52] utilizationCountManeuversMaintenance 92
scalar OsgEarthNet.uav[52] utilizationCountChargeState 46
scalar OsgEarthNet.uav[52] utilizationCountOverdrawnAfterMission 1
scalar OsgEarthNet.uav[52] utilizationCountIdleState 46
scalar OsgEarthNet.uav[52] utilizationFail 0
scalar OsgEarthNet.uav[52] simulationTime 259200
scalar OsgEarthNet.uav[53] utilizationSecMission 15573.982723251
scalar OsgEarthNet.uav[53] utilizationSecMaintenance 12955.195430252
scalar OsgEarthNet.uav[53] utilizationSecCharge 101019.86959083
scalar OsgEarthNet.uav[53] utilizationSecIdle 129650.95125566
scalar OsgEarthNet.uav[53] utilizationEnergyMission 76013.189785004
scalar OsgEarthNet.uav[53] utilizationEnergyMaintenance 60109.950965881
scalar OsgEarthNet.uav[53] utilizationEnergyCharge 134197.88793945
scalar OsgEarthNet.uav[53] utilizationEnergyOverdrawMission 0
scalar OsgEarthNet.uav[53] utilizationEnergyOverdrawMaintenance 268.71590423584
scalar OsgEarthNet.uav[53] utilizationCountMissions 28
scalar OsgEarthNet.uav[53] utilizationCountManeuversMission 506
scalar OsgEarthNet.uav[53] utilizationCountManeuversMaintenance 56
scalar OsgEarthNet.uav[53] utilizationCountChargeState 28
scalar OsgEarthNet.uav[53] utilizationCountOverdrawnAfterMission 2
scalar OsgEarthNet.uav[53] utilizationCountIdleState 28
scalar OsgEarthNet.uav[53] utilizationFail 0
scalar OsgEarthNet.uav[53] simulationTime 259200
scalar OsgEarthNet.uav[54] utilizationSecMission 25290.392731304
scalar OsgEarthNet.uav[54] utilizationSecMaintenance 17951.316998879
scalar OsgEarthNet.uav[54] utilizationSecCharge 157096.28026982
scalar OsgEarthNet.uav[54] utilizationSecIdle 58862.009
scalar OsgEarthNet.uav[54] utilizationEnergyMission 124254.38469315
scalar OsgEarthNet.uav[54] utilizationEnergyMaintenance 84485.116260528
scalar OsgEarthNet.uav[54] utilizationEnergyCharge 208434.49414062
scalar OsgEarthNet.uav[54] utilizationEnergyOverdrawMission 0
scalar OsgEarthNet.uav[54] utilizationEnergyOverdrawMaintenance 39.762699127197
scalar OsgEarthNet.uav[54] utilizationCountMissions 43
scalar OsgEarthNet.uav[54] utilizationCountManeuversMission 909
scalar OsgEarthNet.uav[54] utilizationCountManeuversMaintenance 86
scalar OsgEarthNet.uav[54] utilizationCountChargeState 43
scalar OsgEarthNet.uav[54] utilizationCountOverdrawnAfterMission 1
scalar OsgEarthNet.uav[54] utilizationCountIdleState 42
scalar OsgEarthNet.uav[54] utilizationFail 0
scalar OsgEarthNet.uav[54] simulationTime 259200
scalar OsgEarthNet.uav[55] utilizationSecMission 22950.564838314
scalar OsgEarthNet.uav[55] utilizationSecMaintenance 17545.908830454
scalar OsgEarthNet.uav[55] utilizationSecCharge 146340
scalar OsgEarthNet.uav[55] utilizationSecIdle 72363.525331232
scalar OsgEarthNet.uav[55] utilizationEnergyMission 111997.69351196
scalar OsgEarthNet.uav[55] utilizationEnergyMaintenance 82262.508613806
scalar OsgEarthNet.uav[55] utilizationEnergyCharge 192915.18334961
scalar OsgEarthNet.uav[55] utilizationEnergyOverdrawMission 0
scalar OsgEarthNet.uav[55] utilizationEnergyOverdrawMaintenance 0
scalar OsgEarthNet.uav[55] utilizationCountMissions 40
scalar OsgEarthNet.uav[55] utilizationCountManeuversMission 768
scalar OsgEarthNet.uav[55] utilizationCountManeuversMaintenance 81
scalar OsgEarthNet.uav[55] utilizationCountChargeState 40
scalar OsgEarthNet.uav[55] utilizationCountOverdrawnAfterMission 0
scalar OsgEarthNet.uav[55] utilizationCountIdleState 40
scalar OsgEarthNet.uav[55] utilizationFail 0
scalar OsgEarthNet.uav[55] simulationTime 259200
scalar OsgEarthNet.uav[56] utilizationSecMission 21482.115959785
scalar OsgEarthNet.uav[56] utilizationSecMaintenance 14353.892949725
scalar OsgEarthNet.uav[56] utilizationSecCharge 125271.98609049
scalar OsgEarthNet.uav[56] utilizationSecIdle 98092.004
scalar OsgEarthNet.uav[56] utilizationEnergyMission 103546.5646019
scalar OsgEarthNet.uav[56] utilizationEnergyMaintenance 67531.476169586
scalar OsgEarthNet.uav[56] utilizationEnergyCharge 166519.24475098
scalar OsgEarthNet.uav[56] utilizationEnergyOverdrawMission 0
scalar OsgEarthNet.uav[56] utilizationEnergyOverdrawMaintenance 0
scalar OsgEarthNet.uav[56] utilizationCountMissions 35
scalar OsgEarthNet.uav[56] utilizationCountManeuversMission 614
scalar OsgEarthNet.uav[56] utilizationCountManeuversMaintenance 70
scalar OsgEarthNet.uav[56] utilizationCountChargeState 35
scalar OsgEarthNet.uav[56] utilizationCountOverdrawnAfterMission 0
scalar OsgEarthNet.uav[56] utilizationCountIdleState 30
scalar OsgEarthNet.uav[56] utilizationFail 0
scalar OsgEarthNet.uav[56] simulationTime 259200
scalar OsgEarthNet.uav[57] utilizationSecMission 19578.334013565
scalar OsgEarthNet.uav[57] utilizationSecMaintenance 16147.11369118
scalar OsgEarthNet.uav[57] utilizationSecCharge 126282.54529526
scalar OsgEarthNet.uav[57] utilizationSecIdle 97192.006
scalar OsgEarthNet.uav[57] utilizationEnergyMission 95879.49149704
scalar OsgEarthNet.uav[57] utilizationEnergyMaintenance 75042.088871002
scalar OsgEarthNet.uav[57] utilizationEnergyCharge 167858.00952148
scalar OsgEarthNet.uav[57] utilizationEnergyOverdrawMission 0
scalar OsgEarthNet.uav[57] utilizationEnergyOverdrawMaintenance 0
scalar OsgEarthNet.uav[57] utilizationCountMissions 35
scalar OsgEarthNet.uav[57] utilizationCountManeuversMission 601
scalar OsgEarthNet.uav[57] utilizationCountManeuversMaintenance 70
scalar OsgEarthNet.uav[57] utilizationCountChargeState 35
scalar OsgEarthNet.uav[57] utilizationCountOverdrawnAfterMission 0
scalar OsgEarthNet.uav[57] utilizationCountIdleState 34
scalar OsgEarthNet.uav[57] utilizationFail 0
scalar OsgEarthNet.uav[57] simulationTime 259200
scalar OsgEarthNet.uav[58] utilizationSecMission 24692.420834242
scalar OsgEarthNet.uav[58] utilizationSecMaintenance 17890.851328364
scalar OsgEarthNet.uav[58] utilizationSecCharge 150884.72183739
scalar OsgEarthNet.uav[58] utilizationSecIdle 65732.005
scalar OsgEarthNet.uav[58] utilizationEnergyMission 118766.48035431
scalar OsgEarthNet.uav[58] utilizationEnergyMaintenance 84085.457965851
scalar OsgEarthNet.uav[58] utilizationEnergyCharge 199787.296875
scalar OsgEarthNet.uav[58] utilizationEnergyOverdrawMission 0
scalar OsgEarthNet.uav[58] utilizationEnergyOverdrawMaintenance 41.549842834473
scalar OsgEarthNet.uav[58] utilizationCountMissions 42
scalar OsgEarthNet.uav[58] utilizationCountManeuversMission 807
scalar OsgEarthNet.uav[58] utilizationCountManeuversMaintenance 84
scalar OsgEarthNet.uav[58] utilizationCountChargeState 42
scalar OsgEarthNet.uav[58] utilizationCountOverdrawnAfterMission 1
scalar OsgEarthNet.uav[58] utilizationCountIdleState 40
scalar OsgEarthNet.uav[58] utilizationFail 0
scalar OsgEarthNet.uav[58] simulationTime 259200
scalar OsgEarthNet.uav[59] utilizationSecMission 23607.795751113
scalar OsgEarthNet.uav[59] utilizationSecMaintenance 20347.115278589
scalar OsgEarthNet.uav[59] utilizationSecCharge 155893.78591798
scalar OsgEarthNet.uav[59] utilizationSecIdle 59351.302052322
scalar OsgEarthNet.uav[59] utilizationEnergyMission 116213.83103561
scalar OsgEarthNet.uav[59] utilizationEnergyMaintenance 93957.737033844
scalar OsgEarthNet.uav[59] utilizationEnergyCharge 207493.58398438
scalar OsgEarthNet.uav[59] utilizationEnergyOverdrawMission 0
scalar OsgEarthNet.uav[59] utilizationEnergyOverdrawMaintenance 0
scalar OsgEarthNet.uav[59] utilizationCountMissions 43
scalar OsgEarthNet.uav[59] utilizationCountManeuversMission 747
scalar OsgEarthNet.uav[59] utilizationCountManeuversMaintenance 86
scalar OsgEarthNet.uav[59] utilizationCountChargeState 43
scalar OsgEarthNet.uav[59] utilizationCountOverdrawnAfterMission 0
scalar OsgEarthNet.uav[59] utilizationCountIdleState 38
scalar OsgEarthNet.uav[59] utilizationFail 0
scalar OsgEarthNet.uav[59] simulationTime 259200
scalar OsgEarthNet.uav[60] utilizationSecMission 26731.592820166
scalar OsgEarthNet.uav[60] utilizationSecMaintenance 20778.663662942
scalar OsgEarthNet.uav[60] utilizationSecCharge 169527.73751689
scalar OsgEarthNet.uav[60] utilizationSecIdle 42162.005
scalar OsgEarthNet.uav[60] utilizationEnergyMission 128633.02482986
scalar OsgEarthNet.uav[60] utilizationEnergyMaintenance 98446.995670319
scalar OsgEarthNet.uav[60] utilizationEnergyCharge 224898.44506836
scalar OsgEarthNet.uav[60] utilizationEnergyOverdrawMission 0
scalar OsgEarthNet.uav[60] utilizationEnergyOverdrawMaintenance 0
scalar OsgEarthNet.uav[60] utilizationCountMissions 47
scalar OsgEarthNet.uav[60] utilizationCountManeuversMission 807
scalar OsgEarthNet.uav[60] utilizationCountManeuversMaintenance 94
scalar OsgEarthNet.uav[60] utilizationCountChargeState 47
scalar OsgEarthNet.uav[60] utilizationCountOverdrawnAfterMission 0
scalar OsgEarthNet.uav[60] utilizationCountIdleState 44
scalar OsgEarthNet.uav[60] utilizationFail 0
scalar OsgEarthNet.uav[60] simulationTime 259200
scalar OsgEarthNet.uav[61] utilizationSecMission 26432.871350711
scalar OsgEarthNet.uav[61] utilizationSecMaintenance 20089.643236777
scalar OsgEarthNet.uav[61] utilizationSecCharge 163865.47741251
scalar OsgEarthNet.uav[61] utilizationSecIdle 48812.007
scalar OsgEarthNet.uav[61] utilizationEnergyMission 126853.89427567
scalar OsgEarthNet.uav[61] utilizationEnergyMaintenance 91931.940925598
scalar OsgEarthNet.uav[61] utilizationEnergyCharge 218209.22998047
scalar OsgEarthNet.uav[61] utilizationEnergyOverdrawMission 0
scalar OsgEarthNet.uav[61] utilizationEnergyOverdrawMaintenance 126.75086212158
scalar OsgEarthNet.uav[61] utilizationCountMissions 45
scalar OsgEarthNet.uav[61] utilizationCountManeuversMission 723
scalar OsgEarthNet.uav[61] utilizationCountManeuversMaintenance 90
scalar OsgEarthNet.uav[61] utilizationCountChargeState 45
scalar OsgEarthNet.uav[61] utilizationCountOverdrawnAfterMission 1
scalar OsgEarthNet.uav[61] utilizationCountIdleState 42
scalar OsgEarthNet.uav[61] utilizationFail 0
scalar OsgEarthNet.uav[61] simulationTime 259200
scalar OsgEarthNet.uav[62] utilizationSecMission 26366.288127595
scalar OsgEarthNet.uav[62] utilizationSecMaintenance 21167.413459027
scalar OsgEarthNet.uav[62] utilizationSecCharge 171109.94719256
scalar OsgEarthNet.uav[62] utilizationSecIdle 40556.350220821
scalar OsgEarthNet.uav[62] utilizationEnergyMission 128500.13485336
scalar OsgEarthNet.uav[62] utilizationEnergyMaintenance 98331.834121704
scalar OsgEarthNet.uav[62] utilizationEnergyCharge 227303.05297852
scalar OsgEarthNet.uav[62] utilizationEnergyOverdrawMission 0
scalar OsgEarthNet.uav[62] utilizationEnergyOverdrawMaintenance 0
scalar OsgEarthNet.uav[62] utilizationCountMissions 47
scalar OsgEarthNet.uav[62] utilizationCountManeuversMission 876
scalar OsgEarthNet.uav[62] utilizationCountManeuversMaintenance 94
scalar OsgEarthNet.uav[62] utilizationCountChargeState 47
scalar OsgEarthNet.uav[62] utilizationCountOverdrawnAfterMission 0
scalar OsgEarthNet.uav[62] utilizationCountIdleState 41
scalar OsgEarthNet.uav[62] utilizationFail 0
scalar OsgEarthNet.uav[62] simulationTime 259200
scalar OsgEarthNet.uav[63] utilizationSecMission 26360.058068713
scalar OsgEarthNet.uav[63] utilizationSecMaintenance 20258.080776584
scalar OsgEarthNet.uav[63] utilizationSecCharge 168230.90989904
scalar OsgEarthNet.uav[63] utilizationSecIdle 44350.950255665
scalar OsgEarthNet.uav[63] utilizationEnergyMission 128301.7025528
scalar OsgEarthNet.uav[63] utilizationEnergyMaintenance 93577.014289856
scalar OsgEarthNet.uav[63] utilizationEnergyCharge 223285.22314453
scalar OsgEarthNet.uav[63] utilizationEnergyOverdrawMission 0
scalar OsgEarthNet.uav[63] utilizationEnergyOverdrawMaintenance 54.952533721924
scalar OsgEarthNet.uav[63] utilizationCountMissions 46
scalar OsgEarthNet.uav[63] utilizationCountManeuversMission 921
scalar OsgEarthNet.uav[63] utilizationCountManeuversMaintenance 92
scalar OsgEarthNet.uav[63] utilizationCountChargeState 46
scalar OsgEarthNet.uav[63] utilizationCountOverdrawnAfterMission 1
scalar OsgEarthNet.uav[63] utilizationCountIdleState 42
scalar OsgEarthNet.uav[63] utilizationFail 0
scalar OsgEarthNet.uav[63] simulationTime 259200
scalar OsgEarthNet.uav[64] utilizationSecMission 26306.114322898
scalar OsgEarthNet.uav[64] utilizationSecMaintenance 22351.105442023
scalar OsgEarthNet.uav[64] utilizationSecCharge 175150
scalar OsgEarthNet.uav[64] utilizationSecIdle 35392.779235078
scalar OsgEarthNet.uav[64] utilizationEnergyMission 128643.936306
scalar OsgEarthNet.uav[64] utilizationEnergyMaintenance 104072.76631165
scalar OsgEarthNet.uav[64] utilizationEnergyCharge 232633.77685547
scalar OsgEarthNet.uav[64] utilizationEnergyOverdrawMission 0
scalar OsgEarthNet.uav[64] utilizationEnergyOverdrawMaintenance 49.659086227417
scalar OsgEarthNet.uav[64] utilizationCountMissions 48
scalar OsgEarthNet.uav[64] utilizationCountManeuversMission 880
scalar OsgEarthNet.uav[64] utilizationCountManeuversMaintenance 96
scalar OsgEarthNet.uav[64] utilizationCountChargeState 48
scalar OsgEarthNet.uav[64] utilizationCountOverdrawnAfterMission 3
scalar OsgEarthNet.uav[64] utilizationCountIdleState 43
scalar OsgEarthNet.uav[64] utilizationFail 0
scalar OsgEarthNet.uav[64] simulationTime 259200
scalar OsgEarthNet.uav[65] utilizationSecMission 28731.134402032
scalar OsgEarthNet.uav[65] utilizationSecMaintenance 20838.822038745
scalar OsgEarthNet.uav[65] utilizationSecCharge 175260
scalar OsgEarthNet.uav[65] utilizationSecIdle 34370.042559222
scalar OsgEarthNet.uav[65] utilizationEnergyMission 138406.87498066
scalar OsgEarthNet.uav[65] utilizationEnergyMaintenance 96148.954994202
scalar OsgEarthNet.uav[65] utilizationEnergyCharge 232442.95849609
[...]
scalar OsgEarthNet.uav[81] utilizationCountChargeState 53
scalar OsgEarthNet.uav[81] utilizationCountOverdrawnAfterMission 2
scalar OsgEarthNet.uav[81] utilizationCountIdleState 35
scalar OsgEarthNet.uav[81] utilizationFail 0
scalar OsgEarthNet.uav[81] simulationTime 259200
scalar OsgEarthNet.uav[82] utilizationSecMission 30486.292902814
scalar OsgEarthNet.uav[82] utilizationSecMaintenance 23806.100297532
scalar OsgEarthNet.uav[82] utilizationSecCharge 192095.60379965
scalar OsgEarthNet.uav[82] utilizationSecIdle 12812.002
scalar OsgEarthNet.uav[82] utilizationEnergyMission 145604.00250244
scalar OsgEarthNet.uav[82] utilizationEnergyMaintenance 109595.28812027
scalar OsgEarthNet.uav[82] utilizationEnergyCharge 256871.72021484
scalar OsgEarthNet.uav[82] utilizationEnergyOverdrawMission 0
scalar OsgEarthNet.uav[82] utilizationEnergyOverdrawMaintenance 0
scalar OsgEarthNet.uav[82] utilizationCountMissions 53
scalar OsgEarthNet.uav[82] utilizationCountManeuversMission 955
scalar OsgEarthNet.uav[82] utilizationCountManeuversMaintenance 106
scalar OsgEarthNet.uav[82] utilizationCountChargeState 53
scalar OsgEarthNet.uav[82] utilizationCountOverdrawnAfterMission 0
scalar OsgEarthNet.uav[82] utilizationCountIdleState 35
scalar OsgEarthNet.uav[82] utilizationFail 0
scalar OsgEarthNet.uav[82] simulationTime 259200
scalar OsgEarthNet.uav[83] utilizationSecMission 29796.27818408
scalar OsgEarthNet.uav[83] utilizationSecMaintenance 24479.744404942
scalar OsgEarthNet.uav[83] utilizationSecCharge 189292.61280982
scalar OsgEarthNet.uav[83] utilizationSecIdle 15631.363601159
scalar OsgEarthNet.uav[83] utilizationEnergyMission 144312.52214813
scalar OsgEarthNet.uav[83] utilizationEnergyMaintenance 113384.87533951
scalar OsgEarthNet.uav[83] utilizationEnergyCharge 255456.63696289
scalar OsgEarthNet.uav[83] utilizationEnergyOverdrawMission 0
scalar OsgEarthNet.uav[83] utilizationEnergyOverdrawMaintenance 0
scalar OsgEarthNet.uav[83] utilizationCountMissions 53
scalar OsgEarthNet.uav[83] utilizationCountManeuversMission 922
scalar OsgEarthNet.uav[83] utilizationCountManeuversMaintenance 106
scalar OsgEarthNet.uav[83] utilizationCountChargeState 53
scalar OsgEarthNet.uav[83] utilizationCountOverdrawnAfterMission 0
scalar OsgEarthNet.uav[83] utilizationCountIdleState 27
scalar OsgEarthNet.uav[83] utilizationFail 0
scalar OsgEarthNet.uav[83] simulationTime 259200
scalar OsgEarthNet.uav[84] utilizationSecMission 28728.29369896
scalar OsgEarthNet.uav[84] utilizationSecMaintenance 24457.339549471
scalar OsgEarthNet.uav[84] utilizationSecCharge 189244.25666866
scalar OsgEarthNet.uav[84] utilizationSecIdle 16770.109082907
scalar OsgEarthNet.uav[84] utilizationEnergyMission 140210.40903473
scalar OsgEarthNet.uav[84] utilizationEnergyMaintenance 114616.46574402
scalar OsgEarthNet.uav[84] utilizationEnergyCharge 253947.62353516
scalar OsgEarthNet.uav[84] utilizationEnergyOverdrawMission 0
scalar OsgEarthNet.uav[84] utilizationEnergyOverdrawMaintenance 693.38455200195
scalar OsgEarthNet.uav[84] utilizationCountMissions 52
scalar OsgEarthNet.uav[84] utilizationCountManeuversMission 865
scalar OsgEarthNet.uav[84] utilizationCountManeuversMaintenance 104
scalar OsgEarthNet.uav[84] utilizationCountChargeState 52
scalar OsgEarthNet.uav[84] utilizationCountOverdrawnAfterMission 3
scalar OsgEarthNet.uav[84] utilizationCountIdleState 38
scalar OsgEarthNet.uav[84] utilizationFail 0
scalar OsgEarthNet.uav[84] simulationTime 259200
scalar OsgEarthNet.uav[85] utilizationSecMission 32145.868566577
scalar OsgEarthNet.uav[85] utilizationSecMaintenance 22740.655220134
scalar OsgEarthNet.uav[85] utilizationSecCharge 192711.47121329
scalar OsgEarthNet.uav[85] utilizationSecIdle 11602.004
scalar OsgEarthNet.uav[85] utilizationEnergyMission 155043.55724716
scalar OsgEarthNet.uav[85] utilizationEnergyMaintenance 105369.77976227
scalar OsgEarthNet.uav[85] utilizationEnergyCharge 258247.41522217
scalar OsgEarthNet.uav[85] utilizationEnergyOverdrawMission 0
scalar OsgEarthNet.uav[85] utilizationEnergyOverdrawMaintenance 22.538606643677
scalar OsgEarthNet.uav[85] utilizationCountMissions 54
scalar OsgEarthNet.uav[85] utilizationCountManeuversMission 1041
scalar OsgEarthNet.uav[85] utilizationCountManeuversMaintenance 108
scalar OsgEarthNet.uav[85] utilizationCountChargeState 54
scalar OsgEarthNet.uav[85] utilizationCountOverdrawnAfterMission 2
scalar OsgEarthNet.uav[85] utilizationCountIdleState 36
scalar OsgEarthNet.uav[85] utilizationFail 0
scalar OsgEarthNet.uav[85] simulationTime 259200
scalar OsgEarthNet.uav[86] utilizationSecMission 31267.96642783
scalar OsgEarthNet.uav[86] utilizationSecMaintenance 23652.65308613
scalar OsgEarthNet.uav[86] utilizationSecCharge 192730.00662473
scalar OsgEarthNet.uav[86] utilizationSecIdle 11549.372861308
scalar OsgEarthNet.uav[86] utilizationEnergyMission 150228.80175018
scalar OsgEarthNet.uav[86] utilizationEnergyMaintenance 109256.09640121
scalar OsgEarthNet.uav[86] utilizationEnergyCharge 257910.04956055
scalar OsgEarthNet.uav[86] utilizationEnergyOverdrawMission 0
scalar OsgEarthNet.uav[86] utilizationEnergyOverdrawMaintenance 39.961563110352
scalar OsgEarthNet.uav[86] utilizationCountMissions 54
scalar OsgEarthNet.uav[86] utilizationCountManeuversMission 910
scalar OsgEarthNet.uav[86] utilizationCountManeuversMaintenance 108
scalar OsgEarthNet.uav[86] utilizationCountChargeState 54
scalar OsgEarthNet.uav[86] utilizationCountOverdrawnAfterMission 1
scalar OsgEarthNet.uav[86] utilizationCountIdleState 33
scalar OsgEarthNet.uav[86] utilizationFail 0
scalar OsgEarthNet.uav[86] simulationTime 259200
scalar OsgEarthNet.uav[87] utilizationSecMission 31309.527092475
scalar OsgEarthNet.uav[87] utilizationSecMaintenance 23710.369789292
scalar OsgEarthNet.uav[87] utilizationSecCharge 194548.10211823
scalar OsgEarthNet.uav[87] utilizationSecIdle 9632
scalar OsgEarthNet.uav[87] utilizationEnergyMission 151215.53965759
scalar OsgEarthNet.uav[87] utilizationEnergyMaintenance 110285.57242584
scalar OsgEarthNet.uav[87] utilizationEnergyCharge 261771.48193359
scalar OsgEarthNet.uav[87] utilizationEnergyOverdrawMission 0
scalar OsgEarthNet.uav[87] utilizationEnergyOverdrawMaintenance 149.46397399902
scalar OsgEarthNet.uav[87] utilizationCountMissions 54
scalar OsgEarthNet.uav[87] utilizationCountManeuversMission 961
scalar OsgEarthNet.uav[87] utilizationCountManeuversMaintenance 107
scalar OsgEarthNet.uav[87] utilizationCountChargeState 54
scalar OsgEarthNet.uav[87] utilizationCountOverdrawnAfterMission 1
scalar OsgEarthNet.uav[87] utilizationCountIdleState 33
scalar OsgEarthNet.uav[87] utilizationFail 0
scalar OsgEarthNet.uav[87] simulationTime 259200
scalar OsgEarthNet.uav[88] utilizationSecMission 31108.666476997
scalar OsgEarthNet.uav[88] utilizationSecMaintenance 23417.50373051
scalar OsgEarthNet.uav[88] utilizationSecCharge 194155.95386515
scalar OsgEarthNet.uav[88] utilizationSecIdle 10517.874927346
scalar OsgEarthNet.uav[88] utilizationEnergyMission 152313.95466995
scalar OsgEarthNet.uav[88] utilizationEnergyMaintenance 108775.67332458
scalar OsgEarthNet.uav[88] utilizationEnergyCharge 260390.87084961
scalar OsgEarthNet.uav[88] utilizationEnergyOverdrawMission 0
scalar OsgEarthNet.uav[88] utilizationEnergyOverdrawMaintenance 68.27311706543
scalar OsgEarthNet.uav[88] utilizationCountMissions 54
scalar OsgEarthNet.uav[88] utilizationCountManeuversMission 1000
scalar OsgEarthNet.uav[88] utilizationCountManeuversMaintenance 108
scalar OsgEarthNet.uav[88] utilizationCountChargeState 54
scalar OsgEarthNet.uav[88] utilizationCountOverdrawnAfterMission 1
scalar OsgEarthNet.uav[88] utilizationCountIdleState 36
scalar OsgEarthNet.uav[88] utilizationFail 0
scalar OsgEarthNet.uav[88] simulationTime 259200
scalar OsgEarthNet.uav[89] utilizationSecMission 31483.653862589
scalar OsgEarthNet.uav[89] utilizationSecMaintenance 23707.129555636
scalar OsgEarthNet.uav[89] utilizationSecCharge 189698.53968466
scalar OsgEarthNet.uav[89] utilizationSecIdle 14310.67589711
scalar OsgEarthNet.uav[89] utilizationEnergyMission 151724.3384819
scalar OsgEarthNet.uav[89] utilizationEnergyMaintenance 108496.58891678
scalar OsgEarthNet.uav[89] utilizationEnergyCharge 253360.50775146
scalar OsgEarthNet.uav[89] utilizationEnergyOverdrawMission 0
scalar OsgEarthNet.uav[89] utilizationEnergyOverdrawMaintenance 284.51886749268
scalar OsgEarthNet.uav[89] utilizationCountMissions 53
scalar OsgEarthNet.uav[89] utilizationCountManeuversMission 868
scalar OsgEarthNet.uav[89] utilizationCountManeuversMaintenance 106
scalar OsgEarthNet.uav[89] utilizationCountChargeState 53
scalar OsgEarthNet.uav[89] utilizationCountOverdrawnAfterMission 2
scalar OsgEarthNet.uav[89] utilizationCountIdleState 33
scalar OsgEarthNet.uav[89] utilizationFail 0
scalar OsgEarthNet.uav[89] simulationTime 259200
scalar OsgEarthNet.uav[90] utilizationSecMission 32690.30291266
scalar OsgEarthNet.uav[90] utilizationSecMaintenance 21622.489408362
scalar OsgEarthNet.uav[90] utilizationSecCharge 191630
scalar OsgEarthNet.uav[90] utilizationSecIdle 13257.206678978
scalar OsgEarthNet.uav[90] utilizationEnergyMission 156812.34006151
scalar OsgEarthNet.uav[90] utilizationEnergyMaintenance 100305.11685562
scalar OsgEarthNet.uav[90] utilizationEnergyCharge 256950.40576172
scalar OsgEarthNet.uav[90] utilizationEnergyOverdrawMission 0
scalar OsgEarthNet.uav[90] utilizationEnergyOverdrawMaintenance 0
scalar OsgEarthNet.uav[90] utilizationCountMissions 53
scalar OsgEarthNet.uav[90] utilizationCountManeuversMission 1002
scalar OsgEarthNet.uav[90] utilizationCountManeuversMaintenance 107
scalar OsgEarthNet.uav[90] utilizationCountChargeState 53
scalar OsgEarthNet.uav[90] utilizationCountOverdrawnAfterMission 0
scalar OsgEarthNet.uav[90] utilizationCountIdleState 32
scalar OsgEarthNet.uav[90] utilizationFail 0
scalar OsgEarthNet.uav[90] simulationTime 259200
scalar OsgEarthNet.uav[91] utilizationSecMission 31210.680529578
scalar OsgEarthNet.uav[91] utilizationSecMaintenance 23564.654984147
scalar OsgEarthNet.uav[91] utilizationSecCharge 194612.65848627
scalar OsgEarthNet.uav[91] utilizationSecIdle 9812.005
scalar OsgEarthNet.uav[91] utilizationEnergyMission 150947.83411407
scalar OsgEarthNet.uav[91] utilizationEnergyMaintenance 110363.03824615
scalar OsgEarthNet.uav[91] utilizationEnergyCharge 261212.17626953
scalar OsgEarthNet.uav[91] utilizationEnergyOverdrawMission 0
scalar OsgEarthNet.uav[91] utilizationEnergyOverdrawMaintenance 0
scalar OsgEarthNet.uav[91] utilizationCountMissions 54
scalar OsgEarthNet.uav[91] utilizationCountManeuversMission 965
scalar OsgEarthNet.uav[91] utilizationCountManeuversMaintenance 108
scalar OsgEarthNet.uav[91] utilizationCountChargeState 54
scalar OsgEarthNet.uav[91] utilizationCountOverdrawnAfterMission 0
scalar OsgEarthNet.uav[91] utilizationCountIdleState 31
scalar OsgEarthNet.uav[91] utilizationFail 0
scalar OsgEarthNet.uav[91] simulationTime 259200
scalar OsgEarthNet.uav[92] utilizationSecMission 29671.18085739
scalar OsgEarthNet.uav[92] utilizationSecMaintenance 25591.457140856
scalar OsgEarthNet.uav[92] utilizationSecCharge 196784.65833404
scalar OsgEarthNet.uav[92] utilizationSecIdle 7152.7026677176
scalar OsgEarthNet.uav[92] utilizationEnergyMission 142285.5984726
scalar OsgEarthNet.uav[92] utilizationEnergyMaintenance 120046.6544342
scalar OsgEarthNet.uav[92] utilizationEnergyCharge 264070.49462891
scalar OsgEarthNet.uav[92] utilizationEnergyOverdrawMission 0
scalar OsgEarthNet.uav[92] utilizationEnergyOverdrawMaintenance 34.220252990723
scalar OsgEarthNet.uav[92] utilizationCountMissions 55
scalar OsgEarthNet.uav[92] utilizationCountManeuversMission 997
scalar OsgEarthNet.uav[92] utilizationCountManeuversMaintenance 110
scalar OsgEarthNet.uav[92] utilizationCountChargeState 55
scalar OsgEarthNet.uav[92] utilizationCountOverdrawnAfterMission 1
scalar OsgEarthNet.uav[92] utilizationCountIdleState 28
scalar OsgEarthNet.uav[92] utilizationFail 0
scalar OsgEarthNet.uav[92] simulationTime 259200
scalar OsgEarthNet.uav[93] utilizationSecMission 31035.735486354
scalar OsgEarthNet.uav[93] utilizationSecMaintenance 24051.722664269
scalar OsgEarthNet.uav[93] utilizationSecCharge 194341.58859371
scalar OsgEarthNet.uav[93] utilizationSecIdle 9770.9522556647
scalar OsgEarthNet.uav[93] utilizationEnergyMission 150427.04262543
scalar OsgEarthNet.uav[93] utilizationEnergyMaintenance 111586.58692932
scalar OsgEarthNet.uav[93] utilizationEnergyCharge 260756.70605469
scalar OsgEarthNet.uav[93] utilizationEnergyOverdrawMission 0
scalar OsgEarthNet.uav[93] utilizationEnergyOverdrawMaintenance 396.6883392334
scalar OsgEarthNet.uav[93] utilizationCountMissions 54
scalar OsgEarthNet.uav[93] utilizationCountManeuversMission 985
scalar OsgEarthNet.uav[93] utilizationCountManeuversMaintenance 108
scalar OsgEarthNet.uav[93] utilizationCountChargeState 54
scalar OsgEarthNet.uav[93] utilizationCountOverdrawnAfterMission 2
scalar OsgEarthNet.uav[93] utilizationCountIdleState 25
scalar OsgEarthNet.uav[93] utilizationFail 0
scalar OsgEarthNet.uav[93] simulationTime 259200
scalar OsgEarthNet.uav[94] utilizationSecMission 31546.732628633
scalar OsgEarthNet.uav[94] utilizationSecMaintenance 22873.157795842
scalar OsgEarthNet.uav[94] utilizationSecCharge 192620
scalar OsgEarthNet.uav[94] utilizationSecIdle 12160.108575524
scalar OsgEarthNet.uav[94] utilizationEnergyMission 153959.50081253
scalar OsgEarthNet.uav[94] utilizationEnergyMaintenance 106332.33770328
scalar OsgEarthNet.uav[94] utilizationEnergyCharge 257898.57421875
scalar OsgEarthNet.uav[94] utilizationEnergyOverdrawMission 0
scalar OsgEarthNet.uav[94] utilizationEnergyOverdrawMaintenance 12.336681365967
scalar OsgEarthNet.uav[94] utilizationCountMissions 54
scalar OsgEarthNet.uav[94] utilizationCountManeuversMission 1025
scalar OsgEarthNet.uav[94] utilizationCountManeuversMaintenance 108
scalar OsgEarthNet.uav[94] utilizationCountChargeState 53
scalar OsgEarthNet.uav[94] utilizationCountOverdrawnAfterMission 1
scalar OsgEarthNet.uav[94] utilizationCountIdleState 28
scalar OsgEarthNet.uav[94] utilizationFail 0
scalar OsgEarthNet.uav[94] simulationTime 259200
scalar OsgEarthNet.uav[95] utilizationSecMission 32008.603072771
scalar OsgEarthNet.uav[95] utilizationSecMaintenance 22670.493093751
scalar OsgEarthNet.uav[95] utilizationSecCharge 195010
scalar OsgEarthNet.uav[95] utilizationSecIdle 9510.9028334777
scalar OsgEarthNet.uav[95] utilizationEnergyMission 156016.49055992
scalar OsgEarthNet.uav[95] utilizationEnergyMaintenance 105207.17459869
scalar OsgEarthNet.uav[95] utilizationEnergyCharge 260146.66015625
scalar OsgEarthNet.uav[95] utilizationEnergyOverdrawMission 0
scalar OsgEarthNet.uav[95] utilizationEnergyOverdrawMaintenance 44.776496887207
scalar OsgEarthNet.uav[95] utilizationCountMissions 54
scalar OsgEarthNet.uav[95] utilizationCountManeuversMission 1078
scalar OsgEarthNet.uav[95] utilizationCountManeuversMaintenance 107
scalar OsgEarthNet.uav[95] utilizationCountChargeState 54
scalar OsgEarthNet.uav[95] utilizationCountOverdrawnAfterMission 1
scalar OsgEarthNet.uav[95] utilizationCountIdleState 37
scalar OsgEarthNet.uav[95] utilizationFail 0
scalar OsgEarthNet.uav[95] simulationTime 259200
scalar OsgEarthNet.uav[96] utilizationSecMission 32033.1173614
scalar OsgEarthNet.uav[96] utilizationSecMaintenance 23864.8816386
scalar OsgEarthNet.uav[96] utilizationSecCharge 194510
scalar OsgEarthNet.uav[96] utilizationSecIdle 8792
scalar OsgEarthNet.uav[96] utilizationEnergyMission 156099.44704054
scalar OsgEarthNet.uav[96] utilizationEnergyMaintenance 110139.38228226
scalar OsgEarthNet.uav[96] utilizationEnergyCharge 261144.19287109
scalar OsgEarthNet.uav[96] utilizationEnergyOverdrawMission 0
scalar OsgEarthNet.uav[96] utilizationEnergyOverdrawMaintenance 0
scalar OsgEarthNet.uav[96] utilizationCountMissions 54
scalar OsgEarthNet.uav[96] utilizationCountManeuversMission 954
scalar OsgEarthNet.uav[96] utilizationCountManeuversMaintenance 108
scalar OsgEarthNet.uav[96] utilizationCountChargeState 54
scalar OsgEarthNet.uav[96] utilizationCountOverdrawnAfterMission 0
scalar OsgEarthNet.uav[96] utilizationCountIdleState 29
scalar OsgEarthNet.uav[96] utilizationFail 0
scalar OsgEarthNet.uav[96] simulationTime 259200
scalar OsgEarthNet.uav[97] utilizationSecMission 30883.257667981
scalar OsgEarthNet.uav[97] utilizationSecMaintenance 24337.706922376
scalar OsgEarthNet.uav[97] utilizationSecCharge 196697.03390226
scalar OsgEarthNet.uav[97] utilizationSecIdle 7282.0005073828
scalar OsgEarthNet.uav[97] utilizationEnergyMission 149673.32535553
scalar OsgEarthNet.uav[97] utilizationEnergyMaintenance 113439.68638229
scalar OsgEarthNet.uav[97] utilizationEnergyCharge 264930.02270508
scalar OsgEarthNet.uav[97] utilizationEnergyOverdrawMission 0
scalar OsgEarthNet.uav[97] utilizationEnergyOverdrawMaintenance 0
scalar OsgEarthNet.uav[97] utilizationCountMissions 55
scalar OsgEarthNet.uav[97] utilizationCountManeuversMission 1029
scalar OsgEarthNet.uav[97] utilizationCountManeuversMaintenance 110
scalar OsgEarthNet.uav[97] utilizationCountChargeState 55
scalar OsgEarthNet.uav[97] utilizationCountOverdrawnAfterMission 0
scalar OsgEarthNet.uav[97] utilizationCountIdleState 32
scalar OsgEarthNet.uav[97] utilizationFail 0
scalar OsgEarthNet.uav[97] simulationTime 259200
scalar OsgEarthNet.uav[98] utilizationSecMission 32132.182463199
scalar OsgEarthNet.uav[98] utilizationSecMaintenance 23105.814536801
scalar OsgEarthNet.uav[98] utilizationSecCharge 195710
scalar OsgEarthNet.uav[98] utilizationSecIdle 8252.002
scalar OsgEarthNet.uav[98] utilizationEnergyMission 157536.43142317
scalar OsgEarthNet.uav[98] utilizationEnergyMaintenance 106234.03985596
scalar OsgEarthNet.uav[98] utilizationEnergyCharge 260928.45166016
scalar OsgEarthNet.uav[98] utilizationEnergyOverdrawMission 0
scalar OsgEarthNet.uav[98] utilizationEnergyOverdrawMaintenance 0.68019485473633
scalar OsgEarthNet.uav[98] utilizationCountMissions 54
scalar OsgEarthNet.uav[98] utilizationCountManeuversMission 1134
scalar OsgEarthNet.uav[98] utilizationCountManeuversMaintenance 109
scalar OsgEarthNet.uav[98] utilizationCountChargeState 54
scalar OsgEarthNet.uav[98] utilizationCountOverdrawnAfterMission 1
scalar OsgEarthNet.uav[98] utilizationCountIdleState 32
scalar OsgEarthNet.uav[98] utilizationFail 0
scalar OsgEarthNet.uav[98] simulationTime 259200
scalar OsgEarthNet.uav[99] utilizationSecMission 32536.935023578
scalar OsgEarthNet.uav[99] utilizationSecMaintenance 23270.298011083
scalar OsgEarthNet.uav[99] utilizationSecCharge 194630
scalar OsgEarthNet.uav[99] utilizationSecIdle 8762.765965339
scalar OsgEarthNet.uav[99] utilizationEnergyMission 158594.77697372
scalar OsgEarthNet.uav[99] utilizationEnergyMaintenance 106224.14279355
scalar OsgEarthNet.uav[99] utilizationEnergyCharge 260631.71289062
scalar OsgEarthNet.uav[99] utilizationEnergyOverdrawMission 0
scalar OsgEarthNet.uav[99] utilizationEnergyOverdrawMaintenance 52.997817993164
scalar OsgEarthNet.uav[99] utilizationCountMissions 55
scalar OsgEarthNet.uav[99] utilizationCountManeuversMission 1027
scalar OsgEarthNet.uav[99] utilizationCountManeuversMaintenance 110
scalar OsgEarthNet.uav[99] utilizationCountChargeState 54
scalar OsgEarthNet.uav[99] utilizationCountOverdrawnAfterMission 1
scalar OsgEarthNet.uav[99] utilizationCountIdleState 33
scalar OsgEarthNet.uav[99] utilizationFail 0
scalar OsgEarthNet.uav[99] simulationTime 259200
scalar OsgEarthNet.cs[0] usedPower 4954134.297391
scalar OsgEarthNet.cs[0] chargedPower 4954134.297391
scalar OsgEarthNet.cs[0] chargedMobileNodes 860
scalar OsgEarthNet.cs[0] reservations 1032
scalar OsgEarthNet.cs[1] usedPower 4844669.4802358
scalar OsgEarthNet.cs[1] chargedPower 4844669.4802358
scalar OsgEarthNet.cs[1] chargedMobileNodes 823
scalar OsgEarthNet.cs[1] reservations 999
scalar OsgEarthNet.cs[2] usedPower 9277255.3471475
scalar OsgEarthNet.cs[2] chargedPower 9277255.3471475
scalar OsgEarthNet.cs[2] chargedMobileNodes 1626
scalar OsgEarthNet.cs[2] reservations 1933

