version 2
run Szenario_Hotel_Gabelbach-64-20180707-23:35:06-7936
attr configname Szenario_Hotel_Gabelbach
attr datetime 20180707-23:35:06
attr experiment Szenario_Hotel_Gabelbach
attr inifile omnetpp.ini
attr iterationvars "$quant=0.95, $replM=0"
attr iterationvarsf quant=0.95,replM=0-
attr measurement "$quant=0.95, $replM=0"
attr network OsgEarthNet
attr processid 7936
attr repetition 16
attr replication #16
attr resultdir results
attr runnumber 64
attr seedset 64
itervar quant 0.95
itervar replM 0
param *.osgEarthScene.scene "\"Szenario_Hotel_Gabelbach.earth\""
param *.playgroundLatitude 50.6830269
param *.playgroundLongitude 10.8538055
param *.playgroundWidth 3500m
param *.playgroundHeight 3500m
param *.numCSs 3
param *.numUAVs 100
param *.cs[0].posX 3537m
param *.cs[0].posY 965m
param *.cs[0].posZ 538m
param *.cs[1].posX 312m
param *.cs[1].posY 1262m
param *.cs[1].posZ 539m
param *.cs[2].posX 2185m
param *.cs[2].posY 3026m
param *.cs[2].posZ 777m
param *.uav[*].predictionQuantile 0.95
param *.uav[*].replacementMethod 0
param *.*.timeStep 10s
param *.uav[*].commandPreviewCommandCount 20
param *.missionControl.missionFiles "\"missions\\\\Szenario_WB_Hotel_Gabelbach_Mission_Hotel.waypoints,missions\\\\Szenario_WB_Hotel_Gabelbach_Mission_Kickelhahn.waypoints,missions\\\\Szenario_WB_Hotel_Gabelbach_Mission_Ilmenau_Sportplatz.waypoints,missions\\\\Szenario_WB_Hotel_Gabelbach_Mission_Manebach_Mitte.waypoints,missions\\\\Szenario_WB_Hotel_Gabelbach_Mission_Manebach_Sued.waypoints,missions\\\\Szenario_WB_Hotel_Gabelbach_Hover_HoheSchlaufe.waypoints,missions\\\\Szenario_WB_Hotel_Gabelbach_Hover_Kickelhahn.waypoints,missions\\\\Szenario_WB_Hotel_Gabelbach_Hover_Gabelbachskopf.waypoints,missions\\\\Szenario_WB_Hotel_Gabelbach_Hover_Dachskopf.waypoints\""
param *.uav[0].startX 3537m
param *.uav[0].startY 965m
param *.uav[0].startZ 539m
param *.uav[1].startX 312m
param *.uav[1].startY 1262m
param *.uav[1].startZ 540m
param *.uav[2].startX 2185m
param *.uav[2].startY 3026m
param *.uav[2].startZ 778m
param *.uav[3].startX 3537m
param *.uav[3].startY 965m
param *.uav[3].startZ 539m
param *.uav[4].startX 312m
param *.uav[4].startY 1262m
param *.uav[4].startZ 540m
param *.uav[5].startX 2185m
param *.uav[5].startY 3026m
param *.uav[5].startZ 778m
param *.uav[6].startX 3537m
param *.uav[6].startY 965m
param *.uav[6].startZ 539m
param *.uav[7].startX 312m
param *.uav[7].startY 1262m
param *.uav[7].startZ 540m
param *.uav[8].startX 2185m
param *.uav[8].startY 3026m
param *.uav[8].startZ 778m
param *.uav[9].startX 3537m
param *.uav[9].startY 965m
param *.uav[9].startZ 539m
param *.uav[10].startX 3537m
param *.uav[10].startY 965m
param *.uav[10].startZ 539m
param *.uav[11].startX 312m
param *.uav[11].startY 1262m
param *.uav[11].startZ 540m
param *.uav[12].startX 2185m
param *.uav[12].startY 3026m
param *.uav[12].startZ 778m
param *.uav[13].startX 3537m
param *.uav[13].startY 965m
param *.uav[13].startZ 539m
param *.uav[14].startX 312m
param *.uav[14].startY 1262m
param *.uav[14].startZ 540m
param *.uav[15].startX 2185m
param *.uav[15].startY 3026m
param *.uav[15].startZ 778m
param *.uav[16].startX 3537m
param *.uav[16].startY 965m
param *.uav[16].startZ 539m
param *.uav[17].startX 312m
param *.uav[17].startY 1262m
param *.uav[17].startZ 540m
param *.uav[18].startX 2185m
param *.uav[18].startY 3026m
param *.uav[18].startZ 778m
param *.uav[19].startX 3537m
param *.uav[19].startY 965m
param *.uav[19].startZ 539m
param *.uav[20].startX 3537m
param *.uav[20].startY 965m
param *.uav[20].startZ 539m
param *.uav[21].startX 312m
param *.uav[21].startY 1262m
param *.uav[21].startZ 540m
param *.uav[22].startX 2185m
param *.uav[22].startY 3026m
param *.uav[22].startZ 778m
param *.uav[23].startX 3537m
param *.uav[23].startY 965m
param *.uav[23].startZ 539m
param *.uav[24].startX 312m
param *.uav[24].startY 1262m
param *.uav[24].startZ 540m
param *.uav[25].startX 2185m
param *.uav[25].startY 3026m
param *.uav[25].startZ 778m
param *.uav[26].startX 3537m
param *.uav[26].startY 965m
param *.uav[26].startZ 539m
param *.uav[27].startX 312m
param *.uav[27].startY 1262m
param *.uav[27].startZ 540m
param *.uav[28].startX 2185m
param *.uav[28].startY 3026m
param *.uav[28].startZ 778m
param *.uav[29].startX 3537m
param *.uav[29].startY 965m
param *.uav[29].startZ 539m
param *.uav[30].startX 3537m
param *.uav[30].startY 965m
param *.uav[30].startZ 539m
param *.uav[31].startX 312m
param *.uav[31].startY 1262m
param *.uav[31].startZ 540m
param *.uav[32].startX 2185m
param *.uav[32].startY 3026m
param *.uav[32].startZ 778m
param *.uav[33].startX 3537m
param *.uav[33].startY 965m
param *.uav[33].startZ 539m
param *.uav[34].startX 312m
param *.uav[34].startY 1262m
param *.uav[34].startZ 540m
param *.uav[35].startX 2185m
param *.uav[35].startY 3026m
param *.uav[35].startZ 778m
param *.uav[36].startX 3537m
param *.uav[36].startY 965m
param *.uav[36].startZ 539m
param *.uav[37].startX 312m
param *.uav[37].startY 1262m
param *.uav[37].startZ 540m
param *.uav[38].startX 2185m
param *.uav[38].startY 3026m
param *.uav[38].startZ 778m
param *.uav[39].startX 3537m
param *.uav[39].startY 965m
param *.uav[39].startZ 539m
param *.uav[40].startX 3537m
param *.uav[40].startY 965m
param *.uav[40].startZ 539m
param *.uav[41].startX 312m
param *.uav[41].startY 1262m
param *.uav[41].startZ 540m
param *.uav[42].startX 2185m
param *.uav[42].startY 3026m
param *.uav[42].startZ 778m
param *.uav[43].startX 3537m
param *.uav[43].startY 965m
param *.uav[43].startZ 539m
param *.uav[44].startX 312m
param *.uav[44].startY 1262m
param *.uav[44].startZ 540m
param *.uav[45].startX 2185m
param *.uav[45].startY 3026m
param *.uav[45].startZ 778m
param *.uav[46].startX 3537m
param *.uav[46].startY 965m
param *.uav[46].startZ 539m
param *.uav[47].startX 312m
param *.uav[47].startY 1262m
param *.uav[47].startZ 540m
param *.uav[48].startX 2185m
param *.uav[48].startY 3026m
param *.uav[48].startZ 778m
param *.uav[49].startX 3537m
param *.uav[49].startY 965m
param *.uav[49].startZ 539m
param *.uav[50].startX 3537m
param *.uav[50].startY 965m
param *.uav[50].startZ 539m
param *.uav[51].startX 312m
param *.uav[51].startY 1262m
param *.uav[51].startZ 540m
param *.uav[52].startX 2185m
param *.uav[52].startY 3026m
param *.uav[52].startZ 778m
param *.uav[53].startX 3537m
param *.uav[53].startY 965m
param *.uav[53].startZ 539m
param *.uav[54].startX 312m
param *.uav[54].startY 1262m
param *.uav[54].startZ 540m
param *.uav[55].startX 2185m
param *.uav[55].startY 3026m
param *.uav[55].startZ 778m
param *.uav[56].startX 3537m
param *.uav[56].startY 965m
param *.uav[56].startZ 539m
param *.uav[57].startX 312m
param *.uav[57].startY 1262m
param *.uav[57].startZ 540m
param *.uav[58].startX 2185m
param *.uav[58].startY 3026m
param *.uav[58].startZ 778m
param *.uav[59].startX 3537m
param *.uav[59].startY 965m
param *.uav[59].startZ 539m
param *.uav[60].startX 3537m
param *.uav[60].startY 965m
param *.uav[60].startZ 539m
param *.uav[61].startX 312m
param *.uav[61].startY 1262m
param *.uav[61].startZ 540m
param *.uav[62].startX 2185m
param *.uav[62].startY 3026m
param *.uav[62].startZ 778m
param *.uav[63].startX 3537m
param *.uav[63].startY 965m
param *.uav[63].startZ 539m
param *.uav[64].startX 312m
param *.uav[64].startY 1262m
param *.uav[64].startZ 540m
param *.uav[65].startX 2185m
param *.uav[65].startY 3026m
param *.uav[65].startZ 778m
param *.uav[66].startX 3537m
param *.uav[66].startY 965m
param *.uav[66].startZ 539m
param *.uav[67].startX 312m
param *.uav[67].startY 1262m
param *.uav[67].startZ 540m
param *.uav[68].startX 2185m
param *.uav[68].startY 3026m
param *.uav[68].startZ 778m
param *.uav[69].startX 3537m
param *.uav[69].startY 965m
param *.uav[69].startZ 539m
param *.uav[70].startX 3537m
param *.uav[70].startY 965m
param *.uav[70].startZ 539m
param *.uav[71].startX 312m
param *.uav[71].startY 1262m
param *.uav[71].startZ 540m
param *.uav[72].startX 2185m
param *.uav[72].startY 3026m
param *.uav[72].startZ 778m
param *.uav[73].startX 3537m
param *.uav[73].startY 965m
param *.uav[73].startZ 539m
param *.uav[74].startX 312m
param *.uav[74].startY 1262m
param *.uav[74].startZ 540m
param *.uav[75].startX 2185m
param *.uav[75].startY 3026m
param *.uav[75].startZ 778m
param *.uav[76].startX 3537m
param *.uav[76].startY 965m
param *.uav[76].startZ 539m
param *.uav[77].startX 312m
param *.uav[77].startY 1262m
param *.uav[77].startZ 540m
param *.uav[78].startX 2185m
param *.uav[78].startY 3026m
param *.uav[78].startZ 778m
param *.uav[79].startX 3537m
param *.uav[79].startY 965m
param *.uav[79].startZ 539m
param *.uav[80].startX 3537m
param *.uav[80].startY 965m
param *.uav[80].startZ 539m
param *.uav[81].startX 312m
param *.uav[81].startY 1262m
param *.uav[81].startZ 540m
param *.uav[82].startX 2185m
param *.uav[82].startY 3026m
param *.uav[82].startZ 778m
param *.uav[83].startX 3537m
param *.uav[83].startY 965m
param *.uav[83].startZ 539m
param *.uav[84].startX 312m
param *.uav[84].startY 1262m
param *.uav[84].startZ 540m
param *.uav[85].startX 2185m
param *.uav[85].startY 3026m
param *.uav[85].startZ 778m
param *.uav[86].startX 3537m
param *.uav[86].startY 965m
param *.uav[86].startZ 539m
param *.uav[87].startX 312m
param *.uav[87].startY 1262m
param *.uav[87].startZ 540m
param *.uav[88].startX 2185m
param *.uav[88].startY 3026m
param *.uav[88].startZ 778m
param *.uav[89].startX 3537m
param *.uav[89].startY 965m
param *.uav[89].startZ 539m
param *.uav[90].startX 3537m
param *.uav[90].startY 965m
param *.uav[90].startZ 539m
param *.uav[91].startX 312m
param *.uav[91].startY 1262m
param *.uav[91].startZ 540m
param *.uav[92].startX 2185m
param *.uav[92].startY 3026m
param *.uav[92].startZ 778m
param *.uav[93].startX 3537m
param *.uav[93].startY 965m
param *.uav[93].startZ 539m
param *.uav[94].startX 312m
param *.uav[94].startY 1262m
param *.uav[94].startZ 540m
param *.uav[95].startX 2185m
param *.uav[95].startY 3026m
param *.uav[95].startZ 778m
param *.uav[96].startX 3537m
param *.uav[96].startY 965m
param *.uav[96].startZ 539m
param *.uav[97].startX 312m
param *.uav[97].startY 1262m
param *.uav[97].startZ 540m
param *.uav[98].startX 2185m
param *.uav[98].startY 3026m
param *.uav[98].startZ 778m
param *.uav[99].startX 3537m
param *.uav[99].startY 965m
param *.uav[99].startZ 539m
param *.osgEarthScene.scene "\"boston.earth\""
param *.playgroundLatitude 42.3558
param *.playgroundLongitude -71.0677
param *.playgroundWidth 400m
param *.playgroundHeight 200m
param *.channelController.connectionColor "\"#0000FF40\""
param *.channelController.showConnections false
param *.uav[*].modelURL "\"quadrocopter.small.obj.15.scale.0,0,90.rot\""
param *.uav[*].labelColor "\"#FF7C00CC\""
param *.uav[*].label2Color "\"#FF7C00EE\""
param *.uav[*].batteryCapacity 5200mAh
param *.uav[*].batteryRemaining uav[index].batteryCapacity
param *.uav[*].predictionQuantile 0.95
param *.uav[*].replacementMethod 2
param *.uav[*].weightedSumWeight 0.5
param *.cs[*].modelURL "\"chargingstation_v1.osgt.1.scale.0,0,0.rot.0,0,-15e-1.trans\""
param *.cs[*].spotsWaiting 999
param *.cs[*].spotsCharging 999
param *.cs[*].chargeEffectivenessPercentage 100
param *.cs[*].nonLinearPhaseStartPercentage 85
param *.cs[*].chargeCurrent 6.0A
param *.cs[*].prioritizeFastCharge true
param *.missionControl.replacementSearchMethod 0
param *.*.timeStep 9s

scalar OsgEarthNet.uav[0] utilizationSecMission 26059.306049046
scalar OsgEarthNet.uav[0] utilizationSecMaintenance 23768.688950954
scalar OsgEarthNet.uav[0] utilizationSecCharge 180330
scalar OsgEarthNet.uav[0] utilizationSecIdle 29042.004
scalar OsgEarthNet.uav[0] utilizationEnergyMission 124610.40846741
scalar OsgEarthNet.uav[0] utilizationEnergyMaintenance 111977.92314911
scalar OsgEarthNet.uav[0] utilizationEnergyCharge 236806.35668945
scalar OsgEarthNet.uav[0] utilizationEnergyOverdrawMission 0
scalar OsgEarthNet.uav[0] utilizationEnergyOverdrawMaintenance 0
scalar OsgEarthNet.uav[0] utilizationCountMissions 53
scalar OsgEarthNet.uav[0] utilizationCountManeuversMission 775
scalar OsgEarthNet.uav[0] utilizationCountManeuversMaintenance 107
scalar OsgEarthNet.uav[0] utilizationCountChargeState 53
scalar OsgEarthNet.uav[0] utilizationCountOverdrawnAfterMission 0
scalar OsgEarthNet.uav[0] utilizationCountIdleState 54
scalar OsgEarthNet.uav[0] utilizationFail 0
scalar OsgEarthNet.uav[0] simulationTime 259200
scalar OsgEarthNet.uav[1] utilizationSecMission 25572.014976985
scalar OsgEarthNet.uav[1] utilizationSecMaintenance 22116.087474217
scalar OsgEarthNet.uav[1] utilizationSecCharge 171480.73707492
scalar OsgEarthNet.uav[1] utilizationSecIdle 40031.159473879
scalar OsgEarthNet.uav[1] utilizationEnergyMission 125473.87623215
scalar OsgEarthNet.uav[1] utilizationEnergyMaintenance 103614.96823502
scalar OsgEarthNet.uav[1] utilizationEnergyCharge 225437.42260742
scalar OsgEarthNet.uav[1] utilizationEnergyOverdrawMission 0
scalar OsgEarthNet.uav[1] utilizationEnergyOverdrawMaintenance 0
scalar OsgEarthNet.uav[1] utilizationCountMissions 51
scalar OsgEarthNet.uav[1] utilizationCountManeuversMission 778
scalar OsgEarthNet.uav[1] utilizationCountManeuversMaintenance 102
scalar OsgEarthNet.uav[1] utilizationCountChargeState 51
scalar OsgEarthNet.uav[1] utilizationCountOverdrawnAfterMission 0
scalar OsgEarthNet.uav[1] utilizationCountIdleState 51
scalar OsgEarthNet.uav[1] utilizationFail 0
scalar OsgEarthNet.uav[1] simulationTime 259200
scalar OsgEarthNet.uav[2] utilizationSecMission 26700.892004657
scalar OsgEarthNet.uav[2] utilizationSecMaintenance 21418.391936883
scalar OsgEarthNet.uav[2] utilizationSecCharge 169801.28971117
scalar OsgEarthNet.uav[2] utilizationSecIdle 41279.42534729
scalar OsgEarthNet.uav[2] utilizationEnergyMission 127841.04276657
scalar OsgEarthNet.uav[2] utilizationEnergyMaintenance 99285.583889008
scalar OsgEarthNet.uav[2] utilizationEnergyCharge 221890.07373047
scalar OsgEarthNet.uav[2] utilizationEnergyOverdrawMission 0
scalar OsgEarthNet.uav[2] utilizationEnergyOverdrawMaintenance 0
scalar OsgEarthNet.uav[2] utilizationCountMissions 51
scalar OsgEarthNet.uav[2] utilizationCountManeuversMission 756
scalar OsgEarthNet.uav[2] utilizationCountManeuversMaintenance 102
scalar OsgEarthNet.uav[2] utilizationCountChargeState 51
scalar OsgEarthNet.uav[2] utilizationCountOverdrawnAfterMission 0
scalar OsgEarthNet.uav[2] utilizationCountIdleState 51
scalar OsgEarthNet.uav[2] utilizationFail 0
scalar OsgEarthNet.uav[2] simulationTime 259200
scalar OsgEarthNet.uav[3] utilizationSecMission 320
scalar OsgEarthNet.uav[3] utilizationSecMaintenance 524.03331269068
scalar OsgEarthNet.uav[3] utilizationSecCharge 3330
scalar OsgEarthNet.uav[3] utilizationSecIdle 255025.96568731
scalar OsgEarthNet.uav[3] utilizationEnergyMission 1719.1053352356
scalar OsgEarthNet.uav[3] utilizationEnergyMaintenance 2580.8010978699
scalar OsgEarthNet.uav[3] utilizationEnergyCharge 4316.3208007812
scalar OsgEarthNet.uav[3] utilizationEnergyOverdrawMission 0
scalar OsgEarthNet.uav[3] utilizationEnergyOverdrawMaintenance 0
scalar OsgEarthNet.uav[3] utilizationCountMissions 1
scalar OsgEarthNet.uav[3] utilizationCountManeuversMission 16
scalar OsgEarthNet.uav[3] utilizationCountManeuversMaintenance 2
scalar OsgEarthNet.uav[3] utilizationCountChargeState 1
scalar OsgEarthNet.uav[3] utilizationCountOverdrawnAfterMission 0
scalar OsgEarthNet.uav[3] utilizationCountIdleState 2
scalar OsgEarthNet.uav[3] utilizationFail 0
scalar OsgEarthNet.uav[3] simulationTime 259200
scalar OsgEarthNet.uav[4] utilizationSecMission 18165.782992403
scalar OsgEarthNet.uav[4] utilizationSecMaintenance 16901.673175676
scalar OsgEarthNet.uav[4] utilizationSecCharge 127240
scalar OsgEarthNet.uav[4] utilizationSecIdle 96892.542831921
scalar OsgEarthNet.uav[4] utilizationEnergyMission 88785.169962653
scalar OsgEarthNet.uav[4] utilizationEnergyMaintenance 79065.611515045
scalar OsgEarthNet.uav[4] utilizationEnergyCharge 165700.36865234
scalar OsgEarthNet.uav[4] utilizationEnergyOverdrawMission 0
scalar OsgEarthNet.uav[4] utilizationEnergyOverdrawMaintenance 0
scalar OsgEarthNet.uav[4] utilizationCountMissions 38
scalar OsgEarthNet.uav[4] utilizationCountManeuversMission 618
scalar OsgEarthNet.uav[4] utilizationCountManeuversMaintenance 77
scalar OsgEarthNet.uav[4] utilizationCountChargeState 38
scalar OsgEarthNet.uav[4] utilizationCountOverdrawnAfterMission 0
scalar OsgEarthNet.uav[4] utilizationCountIdleState 39
scalar OsgEarthNet.uav[4] utilizationFail 0
scalar OsgEarthNet.uav[4] simulationTime 259200
scalar OsgEarthNet.uav[5] utilizationSecMission 25863.412485212
scalar OsgEarthNet.uav[5] utilizationSecMaintenance 24734.584514788
scalar OsgEarthNet.uav[5] utilizationSecCharge 180180
scalar OsgEarthNet.uav[5] utilizationSecIdle 28422.002
scalar OsgEarthNet.uav[5] utilizationEnergyMission 124539.07492447
scalar OsgEarthNet.uav[5] utilizationEnergyMaintenance 115775.58880691
scalar OsgEarthNet.uav[5] utilizationEnergyCharge 235931.36645508
scalar OsgEarthNet.uav[5] utilizationEnergyOverdrawMission 0
scalar OsgEarthNet.uav[5] utilizationEnergyOverdrawMaintenance 0
scalar OsgEarthNet.uav[5] utilizationCountMissions 53
scalar OsgEarthNet.uav[5] utilizationCountManeuversMission 824
scalar OsgEarthNet.uav[5] utilizationCountManeuversMaintenance 107
scalar OsgEarthNet.uav[5] utilizationCountChargeState 53
scalar OsgEarthNet.uav[5] utilizationCountOverdrawnAfterMission 0
scalar OsgEarthNet.uav[5] utilizationCountIdleState 53
scalar OsgEarthNet.uav[5] utilizationFail 0
scalar OsgEarthNet.uav[5] simulationTime 259200
scalar OsgEarthNet.uav[6] utilizationSecMission 25332.792328967
scalar OsgEarthNet.uav[6] utilizationSecMaintenance 21431.50855426
scalar OsgEarthNet.uav[6] utilizationSecCharge 167850
scalar OsgEarthNet.uav[6] utilizationSecIdle 44585.698116772
scalar OsgEarthNet.uav[6] utilizationEnergyMission 120304.21337128
scalar OsgEarthNet.uav[6] utilizationEnergyMaintenance 100418.19832611
scalar OsgEarthNet.uav[6] utilizationEnergyCharge 220492.34057617
scalar OsgEarthNet.uav[6] utilizationEnergyOverdrawMission 0
scalar OsgEarthNet.uav[6] utilizationEnergyOverdrawMaintenance 200.79719543457
scalar OsgEarthNet.uav[6] utilizationCountMissions 49
scalar OsgEarthNet.uav[6] utilizationCountManeuversMission 718
scalar OsgEarthNet.uav[6] utilizationCountManeuversMaintenance 98
scalar OsgEarthNet.uav[6] utilizationCountChargeState 49
scalar OsgEarthNet.uav[6] utilizationCountOverdrawnAfterMission 1
scalar OsgEarthNet.uav[6] utilizationCountIdleState 50
scalar OsgEarthNet.uav[6] utilizationFail 0
scalar OsgEarthNet.uav[6] simulationTime 259200
scalar OsgEarthNet.uav[7] utilizationSecMission 26600.762201954
scalar OsgEarthNet.uav[7] utilizationSecMaintenance 22799.569277735
scalar OsgEarthNet.uav[7] utilizationSecCharge 177421.31491305
scalar OsgEarthNet.uav[7] utilizationSecIdle 32378.352607263
scalar OsgEarthNet.uav[7] utilizationEnergyMission 129877.7432251
scalar OsgEarthNet.uav[7] utilizationEnergyMaintenance 106403.6279335
scalar OsgEarthNet.uav[7] utilizationEnergyCharge 232597.53186035
scalar OsgEarthNet.uav[7] utilizationEnergyOverdrawMission 0
scalar OsgEarthNet.uav[7] utilizationEnergyOverdrawMaintenance 0
scalar OsgEarthNet.uav[7] utilizationCountMissions 53
scalar OsgEarthNet.uav[7] utilizationCountManeuversMission 823
scalar OsgEarthNet.uav[7] utilizationCountManeuversMaintenance 106
scalar OsgEarthNet.uav[7] utilizationCountChargeState 53
scalar OsgEarthNet.uav[7] utilizationCountOverdrawnAfterMission 0
scalar OsgEarthNet.uav[7] utilizationCountIdleState 53
scalar OsgEarthNet.uav[7] utilizationFail 0
scalar OsgEarthNet.uav[7] simulationTime 259200
scalar OsgEarthNet.uav[8] utilizationSecMission 22945.891952733
scalar OsgEarthNet.uav[8] utilizationSecMaintenance 20420.747865603
scalar OsgEarthNet.uav[8] utilizationSecCharge 154143.728101
scalar OsgEarthNet.uav[8] utilizationSecIdle 61689.631080665
scalar OsgEarthNet.uav[8] utilizationEnergyMission 110156.51063919
scalar OsgEarthNet.uav[8] utilizationEnergyMaintenance 94998.5275383
scalar OsgEarthNet.uav[8] utilizationEnergyCharge 203506.83105469
scalar OsgEarthNet.uav[8] utilizationEnergyOverdrawMission 0
scalar OsgEarthNet.uav[8] utilizationEnergyOverdrawMaintenance 117.36889648438
scalar OsgEarthNet.uav[8] utilizationCountMissions 45
scalar OsgEarthNet.uav[8] utilizationCountManeuversMission 608
scalar OsgEarthNet.uav[8] utilizationCountManeuversMaintenance 90
scalar OsgEarthNet.uav[8] utilizationCountChargeState 45
scalar OsgEarthNet.uav[8] utilizationCountOverdrawnAfterMission 1
scalar OsgEarthNet.uav[8] utilizationCountIdleState 45
scalar OsgEarthNet.uav[8] utilizationFail 0
scalar OsgEarthNet.uav[8] simulationTime 259200
scalar OsgEarthNet.uav[9] utilizationSecMission 23987.860609303
scalar OsgEarthNet.uav[9] utilizationSecMaintenance 18662.164109328
scalar OsgEarthNet.uav[9] utilizationSecCharge 152397.96228137
scalar OsgEarthNet.uav[9] utilizationSecIdle 64152.012
scalar OsgEarthNet.uav[9] utilizationEnergyMission 114324.97651672
scalar OsgEarthNet.uav[9] utilizationEnergyMaintenance 86727.240837097
scalar OsgEarthNet.uav[9] utilizationEnergyCharge 200654.98388672
scalar OsgEarthNet.uav[9] utilizationEnergyOverdrawMission 0
scalar OsgEarthNet.uav[9] utilizationEnergyOverdrawMaintenance 0
scalar OsgEarthNet.uav[9] utilizationCountMissions 45
scalar OsgEarthNet.uav[9] utilizationCountManeuversMission 695
scalar OsgEarthNet.uav[9] utilizationCountManeuversMaintenance 90
scalar OsgEarthNet.uav[9] utilizationCountChargeState 45
scalar OsgEarthNet.uav[9] utilizationCountOverdrawnAfterMission 0
scalar OsgEarthNet.uav[9] utilizationCountIdleState 45
scalar OsgEarthNet.uav[9] utilizationFail 0
scalar OsgEarthNet.uav[9] simulationTime 259200
scalar OsgEarthNet.uav[10] utilizationSecMission 406.05775011247
scalar OsgEarthNet.uav[10] utilizationSecMaintenance 476.61924102071
scalar OsgEarthNet.uav[10] utilizationSecCharge 3140
scalar OsgEarthNet.uav[10] utilizationSecIdle 255177.32200887
scalar OsgEarthNet.uav[10] utilizationEnergyMission 1708.8124389649
scalar OsgEarthNet.uav[10] utilizationEnergyMaintenance 2297.2150497437
scalar OsgEarthNet.uav[10] utilizationEnergyCharge 4006.0268554688
scalar OsgEarthNet.uav[10] utilizationEnergyOverdrawMission 0
scalar OsgEarthNet.uav[10] utilizationEnergyOverdrawMaintenance 0
scalar OsgEarthNet.uav[10] utilizationCountMissions 1
scalar OsgEarthNet.uav[10] utilizationCountManeuversMission 6
scalar OsgEarthNet.uav[10] utilizationCountManeuversMaintenance 2
scalar OsgEarthNet.uav[10] utilizationCountChargeState 1
scalar OsgEarthNet.uav[10] utilizationCountOverdrawnAfterMission 0
scalar OsgEarthNet.uav[10] utilizationCountIdleState 2
scalar OsgEarthNet.uav[10] utilizationFail 0
scalar OsgEarthNet.uav[10] simulationTime 259200
scalar OsgEarthNet.uav[11] utilizationSecMission 21708.700146299
scalar OsgEarthNet.uav[11] utilizationSecMaintenance 22875.385854345
scalar OsgEarthNet.uav[11] utilizationSecCharge 159203.90499936
scalar OsgEarthNet.uav[11] utilizationSecIdle 55412.008
scalar OsgEarthNet.uav[11] utilizationEnergyMission 107043.39238739
scalar OsgEarthNet.uav[11] utilizationEnergyMaintenance 105968.4860878
scalar OsgEarthNet.uav[11] utilizationEnergyCharge 209847.70532227
scalar OsgEarthNet.uav[11] utilizationEnergyOverdrawMission 0
scalar OsgEarthNet.uav[11] utilizationEnergyOverdrawMaintenance 14.097709655762
scalar OsgEarthNet.uav[11] utilizationCountMissions 47
scalar OsgEarthNet.uav[11] utilizationCountManeuversMission 666
scalar OsgEarthNet.uav[11] utilizationCountManeuversMaintenance 94
scalar OsgEarthNet.uav[11] utilizationCountChargeState 47
scalar OsgEarthNet.uav[11] utilizationCountOverdrawnAfterMission 1
scalar OsgEarthNet.uav[11] utilizationCountIdleState 47
scalar OsgEarthNet.uav[11] utilizationFail 0
scalar OsgEarthNet.uav[11] simulationTime 259200
scalar OsgEarthNet.uav[12] utilizationSecMission 26668.425123164
scalar OsgEarthNet.uav[12] utilizationSecMaintenance 22138.030474641
scalar OsgEarthNet.uav[12] utilizationSecCharge 176424.36829179
scalar OsgEarthNet.uav[12] utilizationSecIdle 33969.175110411
scalar OsgEarthNet.uav[12] utilizationEnergyMission 131271.53224945
scalar OsgEarthNet.uav[12] utilizationEnergyMaintenance 103420.95824432
scalar OsgEarthNet.uav[12] utilizationEnergyCharge 232712.72460938
scalar OsgEarthNet.uav[12] utilizationEnergyOverdrawMission 0
scalar OsgEarthNet.uav[12] utilizationEnergyOverdrawMaintenance 8.4031677246094
scalar OsgEarthNet.uav[12] utilizationCountMissions 52
scalar OsgEarthNet.uav[12] utilizationCountManeuversMission 834
scalar OsgEarthNet.uav[12] utilizationCountManeuversMaintenance 104
scalar OsgEarthNet.uav[12] utilizationCountChargeState 52
scalar OsgEarthNet.uav[12] utilizationCountOverdrawnAfterMission 1
scalar OsgEarthNet.uav[12] utilizationCountIdleState 52
scalar OsgEarthNet.uav[12] utilizationFail 0
scalar OsgEarthNet.uav[12] simulationTime 259200
scalar OsgEarthNet.uav[13] utilizationSecMission 623.68863475643
scalar OsgEarthNet.uav[13] utilizationSecMaintenance 394.94199877579
scalar OsgEarthNet.uav[13] utilizationSecCharge 3700
scalar OsgEarthNet.uav[13] utilizationSecIdle 254481.36836647
scalar OsgEarthNet.uav[13] utilizationEnergyMission 2766.856262207
scalar OsgEarthNet.uav[13] utilizationEnergyMaintenance 1920.7640914917
scalar OsgEarthNet.uav[13] utilizationEnergyCharge 4865.2998046875
scalar OsgEarthNet.uav[13] utilizationEnergyOverdrawMission 0
scalar OsgEarthNet.uav[13] utilizationEnergyOverdrawMaintenance 0
scalar OsgEarthNet.uav[13] utilizationCountMissions 1
scalar OsgEarthNet.uav[13] utilizationCountManeuversMission 10
scalar OsgEarthNet.uav[13] utilizationCountManeuversMaintenance 2
scalar OsgEarthNet.uav[13] utilizationCountChargeState 1
scalar OsgEarthNet.uav[13] utilizationCountOverdrawnAfterMission 0
scalar OsgEarthNet.uav[13] utilizationCountIdleState 2
scalar OsgEarthNet.uav[13] utilizationFail 0
scalar OsgEarthNet.uav[13] simulationTime 259200
scalar OsgEarthNet.uav[14] utilizationSecMission 27070.957914185
scalar OsgEarthNet.uav[14] utilizationSecMaintenance 23255.472128139
scalar OsgEarthNet.uav[14] utilizationSecCharge 180161.56595768
scalar OsgEarthNet.uav[14] utilizationSecIdle 28712.003
scalar OsgEarthNet.uav[14] utilizationEnergyMission 129933.57934189
scalar OsgEarthNet.uav[14] utilizationEnergyMaintenance 109384.16481018
scalar OsgEarthNet.uav[14] utilizationEnergyCharge 237669.98071289
scalar OsgEarthNet.uav[14] utilizationEnergyOverdrawMission 0
scalar OsgEarthNet.uav[14] utilizationEnergyOverdrawMaintenance 215.35244750977
scalar OsgEarthNet.uav[14] utilizationCountMissions 53
scalar OsgEarthNet.uav[14] utilizationCountManeuversMission 847
scalar OsgEarthNet.uav[14] utilizationCountManeuversMaintenance 106
scalar OsgEarthNet.uav[14] utilizationCountChargeState 53
scalar OsgEarthNet.uav[14] utilizationCountOverdrawnAfterMission 1
scalar OsgEarthNet.uav[14] utilizationCountIdleState 53
scalar OsgEarthNet.uav[14] utilizationFail 0
scalar OsgEarthNet.uav[14] simulationTime 259200
scalar OsgEarthNet.uav[15] utilizationSecMission 12342.649003991
scalar OsgEarthNet.uav[15] utilizationSecMaintenance 10716.316876868
scalar OsgEarthNet.uav[15] utilizationSecCharge 84170
scalar OsgEarthNet.uav[15] utilizationSecIdle 151971.03311914
scalar OsgEarthNet.uav[15] utilizationEnergyMission 60434.282588959
scalar OsgEarthNet.uav[15] utilizationEnergyMaintenance 49431.306884766
scalar OsgEarthNet.uav[15] utilizationEnergyCharge 109556.84863281
scalar OsgEarthNet.uav[15] utilizationEnergyOverdrawMission 0
scalar OsgEarthNet.uav[15] utilizationEnergyOverdrawMaintenance 0
scalar OsgEarthNet.uav[15] utilizationCountMissions 25
scalar OsgEarthNet.uav[15] utilizationCountManeuversMission 401
scalar OsgEarthNet.uav[15] utilizationCountManeuversMaintenance 50
scalar OsgEarthNet.uav[15] utilizationCountChargeState 25
scalar OsgEarthNet.uav[15] utilizationCountOverdrawnAfterMission 0
scalar OsgEarthNet.uav[15] utilizationCountIdleState 26
scalar OsgEarthNet.uav[15] utilizationFail 0
scalar OsgEarthNet.uav[15] simulationTime 259200
scalar OsgEarthNet.uav[16] utilizationSecMission 27519.909582793
scalar OsgEarthNet.uav[16] utilizationSecMaintenance 24455.743197232
scalar OsgEarthNet.uav[16] utilizationSecCharge 188192.34621997
scalar OsgEarthNet.uav[16] utilizationSecIdle 19032
scalar OsgEarthNet.uav[16] utilizationEnergyMission 132055.6823616
scalar OsgEarthNet.uav[16] utilizationEnergyMaintenance 112765.9114418
scalar OsgEarthNet.uav[16] utilizationEnergyCharge 246088.49975586
scalar OsgEarthNet.uav[16] utilizationEnergyOverdrawMission 0
scalar OsgEarthNet.uav[16] utilizationEnergyOverdrawMaintenance 0
scalar OsgEarthNet.uav[16] utilizationCountMissions 56
scalar OsgEarthNet.uav[16] utilizationCountManeuversMission 843
scalar OsgEarthNet.uav[16] utilizationCountManeuversMaintenance 111
scalar OsgEarthNet.uav[16] utilizationCountChargeState 56
scalar OsgEarthNet.uav[16] utilizationCountOverdrawnAfterMission 0
scalar OsgEarthNet.uav[16] utilizationCountIdleState 56
scalar OsgEarthNet.uav[16] utilizationFail 0
scalar OsgEarthNet.uav[16] simulationTime 259200
scalar OsgEarthNet.uav[17] utilizationSecMission 25338.987930625
scalar OsgEarthNet.uav[17] utilizationSecMaintenance 23897.182904442
scalar OsgEarthNet.uav[17] utilizationSecCharge 176121.82416493
scalar OsgEarthNet.uav[17] utilizationSecIdle 33842.004
scalar OsgEarthNet.uav[17] utilizationEnergyMission 124076.23987579
scalar OsgEarthNet.uav[17] utilizationEnergyMaintenance 110279.79167175
scalar OsgEarthNet.uav[17] utilizationEnergyCharge 230321.60559082
scalar OsgEarthNet.uav[17] utilizationEnergyOverdrawMission 0
scalar OsgEarthNet.uav[17] utilizationEnergyOverdrawMaintenance 0
scalar OsgEarthNet.uav[17] utilizationCountMissions 53
scalar OsgEarthNet.uav[17] utilizationCountManeuversMission 805
scalar OsgEarthNet.uav[17] utilizationCountManeuversMaintenance 106
scalar OsgEarthNet.uav[17] utilizationCountChargeState 53
scalar OsgEarthNet.uav[17] utilizationCountOverdrawnAfterMission 0
scalar OsgEarthNet.uav[17] utilizationCountIdleState 53
scalar OsgEarthNet.uav[17] utilizationFail 0
scalar OsgEarthNet.uav[17] simulationTime 259200
scalar OsgEarthNet.uav[18] utilizationSecMission 12220.926292793
scalar OsgEarthNet.uav[18] utilizationSecMaintenance 9930.8555221772
scalar OsgEarthNet.uav[18] utilizationSecCharge 77796.21118503
scalar OsgEarthNet.uav[18] utilizationSecIdle 159252.006
scalar OsgEarthNet.uav[18] utilizationEnergyMission 57438.732776642
scalar OsgEarthNet.uav[18] utilizationEnergyMaintenance 45787.427585602
scalar OsgEarthNet.uav[18] utilizationEnergyCharge 101391.31396484
scalar OsgEarthNet.uav[18] utilizationEnergyOverdrawMission 0
scalar OsgEarthNet.uav[18] utilizationEnergyOverdrawMaintenance 0
scalar OsgEarthNet.uav[18] utilizationCountMissions 24
scalar OsgEarthNet.uav[18] utilizationCountManeuversMission 397
scalar OsgEarthNet.uav[18] utilizationCountManeuversMaintenance 48
scalar OsgEarthNet.uav[18] utilizationCountChargeState 24
scalar OsgEarthNet.uav[18] utilizationCountOverdrawnAfterMission 0
scalar OsgEarthNet.uav[18] utilizationCountIdleState 24
scalar OsgEarthNet.uav[18] utilizationFail 0
scalar OsgEarthNet.uav[18] simulationTime 259200
scalar OsgEarthNet.uav[19] utilizationSecMission 313.66140879233
scalar OsgEarthNet.uav[19] utilizationSecMaintenance 473.03391658586
scalar OsgEarthNet.uav[19] utilizationSecCharge 2980
scalar OsgEarthNet.uav[19] utilizationSecIdle 255433.30367462
scalar OsgEarthNet.uav[19] utilizationEnergyMission 1380.1453704834
scalar OsgEarthNet.uav[19] utilizationEnergyMaintenance 2214.5134506226
scalar OsgEarthNet.uav[19] utilizationEnergyCharge 3594.6552734375
scalar OsgEarthNet.uav[19] utilizationEnergyOverdrawMission 0
scalar OsgEarthNet.uav[19] utilizationEnergyOverdrawMaintenance 0
scalar OsgEarthNet.uav[19] utilizationCountMissions 1
scalar OsgEarthNet.uav[19] utilizationCountManeuversMission 5
scalar OsgEarthNet.uav[19] utilizationCountManeuversMaintenance 2
scalar OsgEarthNet.uav[19] utilizationCountChargeState 1
scalar OsgEarthNet.uav[19] utilizationCountOverdrawnAfterMission 0
scalar OsgEarthNet.uav[19] utilizationCountIdleState 2
scalar OsgEarthNet.uav[19] utilizationFail 0
scalar OsgEarthNet.uav[19] simulationTime 259200
scalar OsgEarthNet.uav[20] utilizationSecMission 320
scalar OsgEarthNet.uav[20] utilizationSecMaintenance 524.03331269068
scalar OsgEarthNet.uav[20] utilizationSecCharge 3320
scalar OsgEarthNet.uav[20] utilizationSecIdle 255035.96568731
scalar OsgEarthNet.uav[20] utilizationEnergyMission 1668.1204948425
scalar OsgEarthNet.uav[20] utilizationEnergyMaintenance 2545.9328727722
scalar OsgEarthNet.uav[20] utilizationEnergyCharge 4264.5581054688
scalar OsgEarthNet.uav[20] utilizationEnergyOverdrawMission 0
scalar OsgEarthNet.uav[20] utilizationEnergyOverdrawMaintenance 0
scalar OsgEarthNet.uav[20] utilizationCountMissions 1
scalar OsgEarthNet.uav[20] utilizationCountManeuversMission 16
scalar OsgEarthNet.uav[20] utilizationCountManeuversMaintenance 2
scalar OsgEarthNet.uav[20] utilizationCountChargeState 1
scalar OsgEarthNet.uav[20] utilizationCountOverdrawnAfterMission 0
scalar OsgEarthNet.uav[20] utilizationCountIdleState 2
scalar OsgEarthNet.uav[20] utilizationFail 0
scalar OsgEarthNet.uav[20] simulationTime 259200
scalar OsgEarthNet.uav[21] utilizationSecMission 17711.880117987
scalar OsgEarthNet.uav[21] utilizationSecMaintenance 15106.107882013
scalar OsgEarthNet.uav[21] utilizationSecCharge 118710
scalar OsgEarthNet.uav[21] utilizationSecIdle 107672.011
scalar OsgEarthNet.uav[21] utilizationEnergyMission 86499.145179749
scalar OsgEarthNet.uav[21] utilizationEnergyMaintenance 70045.757987336
scalar OsgEarthNet.uav[21] utilizationEnergyCharge 155714.81689453
scalar OsgEarthNet.uav[21] utilizationEnergyOverdrawMission 0
scalar OsgEarthNet.uav[21] utilizationEnergyOverdrawMaintenance 0
scalar OsgEarthNet.uav[21] utilizationCountMissions 35
scalar OsgEarthNet.uav[21] utilizationCountManeuversMission 501
scalar OsgEarthNet.uav[21] utilizationCountManeuversMaintenance 71
scalar OsgEarthNet.uav[21] utilizationCountChargeState 35
scalar OsgEarthNet.uav[21] utilizationCountOverdrawnAfterMission 0
scalar OsgEarthNet.uav[21] utilizationCountIdleState 36
scalar OsgEarthNet.uav[21] utilizationFail 0
scalar OsgEarthNet.uav[21] simulationTime 259200
scalar OsgEarthNet.uav[22] utilizationSecMission 29196.02865252
scalar OsgEarthNet.uav[22] utilizationSecMaintenance 20923.170255414
scalar OsgEarthNet.uav[22] utilizationSecCharge 181420
scalar OsgEarthNet.uav[22] utilizationSecIdle 27660.800092066
scalar OsgEarthNet.uav[22] utilizationEnergyMission 140918.47453598
scalar OsgEarthNet.uav[22] utilizationEnergyMaintenance 97159.293300629
scalar OsgEarthNet.uav[22] utilizationEnergyCharge 237813.47460938
scalar OsgEarthNet.uav[22] utilizationEnergyOverdrawMission 0
scalar OsgEarthNet.uav[22] utilizationEnergyOverdrawMaintenance 0
scalar OsgEarthNet.uav[22] utilizationCountMissions 53
scalar OsgEarthNet.uav[22] utilizationCountManeuversMission 780
scalar OsgEarthNet.uav[22] utilizationCountManeuversMaintenance 105
scalar OsgEarthNet.uav[22] utilizationCountChargeState 53
scalar OsgEarthNet.uav[22] utilizationCountOverdrawnAfterMission 0
scalar OsgEarthNet.uav[22] utilizationCountIdleState 54
scalar OsgEarthNet.uav[22] utilizationFail 0
scalar OsgEarthNet.uav[22] simulationTime 259200
scalar OsgEarthNet.uav[23] utilizationSecMission 558.29059458083
scalar OsgEarthNet.uav[23] utilizationSecMaintenance 416.7137519136
scalar OsgEarthNet.uav[23] utilizationSecCharge 3510
scalar OsgEarthNet.uav[23] utilizationSecIdle 254714.99465351
scalar OsgEarthNet.uav[23] utilizationEnergyMission 2540.6448669434
scalar OsgEarthNet.uav[23] utilizationEnergyMaintenance 2108.9531478882
scalar OsgEarthNet.uav[23] utilizationEnergyCharge 4649.6015625
scalar OsgEarthNet.uav[23] utilizationEnergyOverdrawMission 0
scalar OsgEarthNet.uav[23] utilizationEnergyOverdrawMaintenance 0
scalar OsgEarthNet.uav[23] utilizationCountMissions 1
scalar OsgEarthNet.uav[23] utilizationCountManeuversMission 8
scalar OsgEarthNet.uav[23] utilizationCountManeuversMaintenance 2
scalar OsgEarthNet.uav[23] utilizationCountChargeState 1
scalar OsgEarthNet.uav[23] utilizationCountOverdrawnAfterMission 0
scalar OsgEarthNet.uav[23] utilizationCountIdleState 2
scalar OsgEarthNet.uav[23] utilizationFail 0
scalar OsgEarthNet.uav[23] simulationTime 259200
scalar OsgEarthNet.uav[24] utilizationSecMission 21530.911935164
scalar OsgEarthNet.uav[24] utilizationSecMaintenance 19136.999842021
scalar OsgEarthNet.uav[24] utilizationSecCharge 144780
scalar OsgEarthNet.uav[24] utilizationSecIdle 73752.087222815
scalar OsgEarthNet.uav[24] utilizationEnergyMission 103204.80588913
scalar OsgEarthNet.uav[24] utilizationEnergyMaintenance 89377.187021521
scalar OsgEarthNet.uav[24] utilizationEnergyCharge 189041.93505859
scalar OsgEarthNet.uav[24] utilizationEnergyOverdrawMission 0
scalar OsgEarthNet.uav[24] utilizationEnergyOverdrawMaintenance 15.901617050171
scalar OsgEarthNet.uav[24] utilizationCountMissions 44
scalar OsgEarthNet.uav[24] utilizationCountManeuversMission 764
scalar OsgEarthNet.uav[24] utilizationCountManeuversMaintenance 88
scalar OsgEarthNet.uav[24] utilizationCountChargeState 43
scalar OsgEarthNet.uav[24] utilizationCountOverdrawnAfterMission 1
scalar OsgEarthNet.uav[24] utilizationCountIdleState 44
scalar OsgEarthNet.uav[24] utilizationFail 0
scalar OsgEarthNet.uav[24] simulationTime 259200
scalar OsgEarthNet.uav[25] utilizationSecMission 26077.259297175
scalar OsgEarthNet.uav[25] utilizationSecMaintenance 24695.014139803
scalar OsgEarthNet.uav[25] utilizationSecCharge 184405.72556302
scalar OsgEarthNet.uav[25] utilizationSecIdle 24022
scalar OsgEarthNet.uav[25] utilizationEnergyMission 128257.01205444
scalar OsgEarthNet.uav[25] utilizationEnergyMaintenance 113117.95065308
scalar OsgEarthNet.uav[25] utilizationEnergyCharge 241030.83935547
scalar OsgEarthNet.uav[25] utilizationEnergyOverdrawMission 0
scalar OsgEarthNet.uav[25] utilizationEnergyOverdrawMaintenance 0
scalar OsgEarthNet.uav[25] utilizationCountMissions 55
scalar OsgEarthNet.uav[25] utilizationCountManeuversMission 962
scalar OsgEarthNet.uav[25] utilizationCountManeuversMaintenance 110
scalar OsgEarthNet.uav[25] utilizationCountChargeState 55
scalar OsgEarthNet.uav[25] utilizationCountOverdrawnAfterMission 0
scalar OsgEarthNet.uav[25] utilizationCountIdleState 55
scalar OsgEarthNet.uav[25] utilizationFail 0
scalar OsgEarthNet.uav[25] simulationTime 259200
scalar OsgEarthNet.uav[26] utilizationSecMission 25973.128904365
scalar OsgEarthNet.uav[26] utilizationSecMaintenance 21403.536530326
scalar OsgEarthNet.uav[26] utilizationSecCharge 172519.94144778
scalar OsgEarthNet.uav[26] utilizationSecIdle 39303.392117534
scalar OsgEarthNet.uav[26] utilizationEnergyMission 127657.51787949
scalar OsgEarthNet.uav[26] utilizationEnergyMaintenance 99289.050643921
scalar OsgEarthNet.uav[26] utilizationEnergyCharge 225259.79394531
scalar OsgEarthNet.uav[26] utilizationEnergyOverdrawMission 0
scalar OsgEarthNet.uav[26] utilizationEnergyOverdrawMaintenance 0
scalar OsgEarthNet.uav[26] utilizationCountMissions 52
scalar OsgEarthNet.uav[26] utilizationCountManeuversMission 922
scalar OsgEarthNet.uav[26] utilizationCountManeuversMaintenance 104
scalar OsgEarthNet.uav[26] utilizationCountChargeState 52
scalar OsgEarthNet.uav[26] utilizationCountOverdrawnAfterMission 0
scalar OsgEarthNet.uav[26] utilizationCountIdleState 52
scalar OsgEarthNet.uav[26] utilizationFail 0
scalar OsgEarthNet.uav[26] simulationTime 259200
scalar OsgEarthNet.uav[27] utilizationSecMission 24761.770931753
scalar OsgEarthNet.uav[27] utilizationSecMaintenance 21348.037188623
scalar OsgEarthNet.uav[27] utilizationSecCharge 166389.13505413
scalar OsgEarthNet.uav[27] utilizationSecIdle 46701.055825492
scalar OsgEarthNet.uav[27] utilizationEnergyMission 118387.64002991
scalar OsgEarthNet.uav[27] utilizationEnergyMaintenance 99453.302513123
scalar OsgEarthNet.uav[27] utilizationEnergyCharge 218308.39916992
scalar OsgEarthNet.uav[27] utilizationEnergyOverdrawMission 0
scalar OsgEarthNet.uav[27] utilizationEnergyOverdrawMaintenance 0
scalar OsgEarthNet.uav[27] utilizationCountMissions 49
scalar OsgEarthNet.uav[27] utilizationCountManeuversMission 726
scalar OsgEarthNet.uav[27] utilizationCountManeuversMaintenance 98
scalar OsgEarthNet.uav[27] utilizationCountChargeState 49
scalar OsgEarthNet.uav[27] utilizationCountOverdrawnAfterMission 0
scalar OsgEarthNet.uav[27] utilizationCountIdleState 49
scalar OsgEarthNet.uav[27] utilizationFail 0
scalar OsgEarthNet.uav[27] simulationTime 259200
scalar OsgEarthNet.uav[28] utilizationSecMission 25064.182458698
scalar OsgEarthNet.uav[28] utilizationSecMaintenance 21168.909193026
scalar OsgEarthNet.uav[28] utilizationSecCharge 166590.55712745
scalar OsgEarthNet.uav[28] utilizationSecIdle 46376.350220821
scalar OsgEarthNet.uav[28] utilizationEnergyMission 120283.44552231
scalar OsgEarthNet.uav[28] utilizationEnergyMaintenance 98686.618392944
scalar OsgEarthNet.uav[28] utilizationEnergyCharge 218707.24365234
scalar OsgEarthNet.uav[28] utilizationEnergyOverdrawMission 0
scalar OsgEarthNet.uav[28] utilizationEnergyOverdrawMaintenance 0
scalar OsgEarthNet.uav[28] utilizationCountMissions 49
scalar OsgEarthNet.uav[28] utilizationCountManeuversMission 806
scalar OsgEarthNet.uav[28] utilizationCountManeuversMaintenance 98
scalar OsgEarthNet.uav[28] utilizationCountChargeState 49
scalar OsgEarthNet.uav[28] utilizationCountOverdrawnAfterMission 0
scalar OsgEarthNet.uav[28] utilizationCountIdleState 49
scalar OsgEarthNet.uav[28] utilizationFail 0
scalar OsgEarthNet.uav[28] simulationTime 259200
scalar OsgEarthNet.uav[29] utilizationSecMission 24965.415268931
scalar OsgEarthNet.uav[29] utilizationSecMaintenance 21333.388160996
scalar OsgEarthNet.uav[29] utilizationSecCharge 167420
scalar OsgEarthNet.uav[29] utilizationSecIdle 45481.195570073
scalar OsgEarthNet.uav[29] utilizationEnergyMission 120536.39451183
scalar OsgEarthNet.uav[29] utilizationEnergyMaintenance 99958.515296936
scalar OsgEarthNet.uav[29] utilizationEnergyCharge 219336.80834961
scalar OsgEarthNet.uav[29] utilizationEnergyOverdrawMission 0
scalar OsgEarthNet.uav[29] utilizationEnergyOverdrawMaintenance 0
scalar OsgEarthNet.uav[29] utilizationCountMissions 49
scalar OsgEarthNet.uav[29] utilizationCountManeuversMission 716
scalar OsgEarthNet.uav[29] utilizationCountManeuversMaintenance 99
scalar OsgEarthNet.uav[29] utilizationCountChargeState 49
scalar OsgEarthNet.uav[29] utilizationCountOverdrawnAfterMission 0
scalar OsgEarthNet.uav[29] utilizationCountIdleState 50
scalar OsgEarthNet.uav[29] utilizationFail 0
scalar OsgEarthNet.uav[29] simulationTime 259200
scalar OsgEarthNet.uav[30] utilizationSecMission 560
scalar OsgEarthNet.uav[30] utilizationSecMaintenance 363.8841636065
scalar OsgEarthNet.uav[30] utilizationSecCharge 3460
scalar OsgEarthNet.uav[30] utilizationSecIdle 254816.11483639
scalar OsgEarthNet.uav[30] utilizationEnergyMission 2394.6289710999
scalar OsgEarthNet.uav[30] utilizationEnergyMaintenance 1741.8764152527
scalar OsgEarthNet.uav[30] utilizationEnergyCharge 4494.4174804688
scalar OsgEarthNet.uav[30] utilizationEnergyOverdrawMission 0
scalar OsgEarthNet.uav[30] utilizationEnergyOverdrawMaintenance 0
scalar OsgEarthNet.uav[30] utilizationCountMissions 1
scalar OsgEarthNet.uav[30] utilizationCountManeuversMission 28
scalar OsgEarthNet.uav[30] utilizationCountManeuversMaintenance 2
scalar OsgEarthNet.uav[30] utilizationCountChargeState 1
scalar OsgEarthNet.uav[30] utilizationCountOverdrawnAfterMission 0
scalar OsgEarthNet.uav[30] utilizationCountIdleState 2
scalar OsgEarthNet.uav[30] utilizationFail 0
scalar OsgEarthNet.uav[30] simulationTime 259200
scalar OsgEarthNet.uav[31] utilizationSecMission 20635.291188493
scalar OsgEarthNet.uav[31] utilizationSecMaintenance 16971.87621722
scalar OsgEarthNet.uav[31] utilizationSecCharge 135870
scalar OsgEarthNet.uav[31] utilizationSecIdle 85722.831594287
scalar OsgEarthNet.uav[31] utilizationEnergyMission 98674.04750061
scalar OsgEarthNet.uav[31] utilizationEnergyMaintenance 80151.815643311
scalar OsgEarthNet.uav[31] utilizationEnergyCharge 177951.27880859
scalar OsgEarthNet.uav[31] utilizationEnergyOverdrawMission 0
scalar OsgEarthNet.uav[31] utilizationEnergyOverdrawMaintenance 0
scalar OsgEarthNet.uav[31] utilizationCountMissions 40
scalar OsgEarthNet.uav[31] utilizationCountManeuversMission 587
scalar OsgEarthNet.uav[31] utilizationCountManeuversMaintenance 80
scalar OsgEarthNet.uav[31] utilizationCountChargeState 40
scalar OsgEarthNet.uav[31] utilizationCountOverdrawnAfterMission 0
scalar OsgEarthNet.uav[31] utilizationCountIdleState 41
scalar OsgEarthNet.uav[31] utilizationFail 0
scalar OsgEarthNet.uav[31] simulationTime 259200
scalar OsgEarthNet.uav[32] utilizationSecMission 28176.392664727
scalar OsgEarthNet.uav[32] utilizationSecMaintenance 22738.357745606
scalar OsgEarthNet.uav[32] utilizationSecCharge 182983.24858967
scalar OsgEarthNet.uav[32] utilizationSecIdle 25302
scalar OsgEarthNet.uav[32] utilizationEnergyMission 136969.11383951
scalar OsgEarthNet.uav[32] utilizationEnergyMaintenance 106313.38844299
scalar OsgEarthNet.uav[32] utilizationEnergyCharge 240598.46905518
scalar OsgEarthNet.uav[32] utilizationEnergyOverdrawMission 0
scalar OsgEarthNet.uav[32] utilizationEnergyOverdrawMaintenance 0
scalar OsgEarthNet.uav[32] utilizationCountMissions 54
scalar OsgEarthNet.uav[32] utilizationCountManeuversMission 813
scalar OsgEarthNet.uav[32] utilizationCountManeuversMaintenance 107
scalar OsgEarthNet.uav[32] utilizationCountChargeState 54
scalar OsgEarthNet.uav[32] utilizationCountOverdrawnAfterMission 0
scalar OsgEarthNet.uav[32] utilizationCountIdleState 54
scalar OsgEarthNet.uav[32] utilizationFail 0
scalar OsgEarthNet.uav[32] simulationTime 259200
scalar OsgEarthNet.uav[33] utilizationSecMission 27484.580521993
scalar OsgEarthNet.uav[33] utilizationSecMaintenance 22542.652512668
scalar OsgEarthNet.uav[33] utilizationSecCharge 176650
scalar OsgEarthNet.uav[33] utilizationSecIdle 32522.765965339
scalar OsgEarthNet.uav[33] utilizationEnergyMission 131691.30105783
scalar OsgEarthNet.uav[33] utilizationEnergyMaintenance 104962.3632431
scalar OsgEarthNet.uav[33] utilizationEnergyCharge 231768.01782227
scalar OsgEarthNet.uav[33] utilizationEnergyOverdrawMission 0
scalar OsgEarthNet.uav[33] utilizationEnergyOverdrawMaintenance 181.9243927002
scalar OsgEarthNet.uav[33] utilizationCountMissions 52
scalar OsgEarthNet.uav[33] utilizationCountManeuversMission 755
scalar OsgEarthNet.uav[33] utilizationCountManeuversMaintenance 105
scalar OsgEarthNet.uav[33] utilizationCountChargeState 52
scalar OsgEarthNet.uav[33] utilizationCountOverdrawnAfterMission 1
scalar OsgEarthNet.uav[33] utilizationCountIdleState 53
scalar OsgEarthNet.uav[33] utilizationFail 0
scalar OsgEarthNet.uav[33] simulationTime 259200
scalar OsgEarthNet.uav[34] utilizationSecMission 26363.184280147
scalar OsgEarthNet.uav[34] utilizationSecMaintenance 24750.133911965
scalar OsgEarthNet.uav[34] utilizationSecCharge 183270
scalar OsgEarthNet.uav[34] utilizationSecIdle 24816.680807888
scalar OsgEarthNet.uav[34] utilizationEnergyMission 128072.49402237
scalar OsgEarthNet.uav[34] utilizationEnergyMaintenance 114746.66195642
scalar OsgEarthNet.uav[34] utilizationEnergyCharge 239178.72338867
scalar OsgEarthNet.uav[34] utilizationEnergyOverdrawMission 0
scalar OsgEarthNet.uav[34] utilizationEnergyOverdrawMaintenance 0
scalar OsgEarthNet.uav[34] utilizationCountMissions 54
scalar OsgEarthNet.uav[34] utilizationCountManeuversMission 797
scalar OsgEarthNet.uav[34] utilizationCountManeuversMaintenance 109
scalar OsgEarthNet.uav[34] utilizationCountChargeState 54
scalar OsgEarthNet.uav[34] utilizationCountOverdrawnAfterMission 0
scalar OsgEarthNet.uav[34] utilizationCountIdleState 55
scalar OsgEarthNet.uav[34] utilizationFail 0
scalar OsgEarthNet.uav[34] simulationTime 259200
scalar OsgEarthNet.uav[35] utilizationSecMission 24510.427594669
scalar OsgEarthNet.uav[35] utilizationSecMaintenance 22446.315153196
scalar OsgEarthNet.uav[35] utilizationSecCharge 170901.80329342
scalar OsgEarthNet.uav[35] utilizationSecIdle 41341.452958717
scalar OsgEarthNet.uav[35] utilizationEnergyMission 118658.28063583
scalar OsgEarthNet.uav[35] utilizationEnergyMaintenance 104563.12704468
scalar OsgEarthNet.uav[35] utilizationEnergyCharge 223617.38525391
scalar OsgEarthNet.uav[35] utilizationEnergyOverdrawMission 0
scalar OsgEarthNet.uav[35] utilizationEnergyOverdrawMaintenance 91.887245178223
scalar OsgEarthNet.uav[35] utilizationCountMissions 50
scalar OsgEarthNet.uav[35] utilizationCountManeuversMission 754
scalar OsgEarthNet.uav[35] utilizationCountManeuversMaintenance 100
scalar OsgEarthNet.uav[35] utilizationCountChargeState 50
scalar OsgEarthNet.uav[35] utilizationCountOverdrawnAfterMission 1
scalar OsgEarthNet.uav[35] utilizationCountIdleState 50
scalar OsgEarthNet.uav[35] utilizationFail 0
scalar OsgEarthNet.uav[35] simulationTime 259200
scalar OsgEarthNet.uav[36] utilizationSecMission 23649.959575302
scalar OsgEarthNet.uav[36] utilizationSecMaintenance 19484.859907999
scalar OsgEarthNet.uav[36] utilizationSecCharge 156040
scalar OsgEarthNet.uav[36] utilizationSecIdle 60025.179516699
scalar OsgEarthNet.uav[36] utilizationEnergyMission 113419.75592041
scalar OsgEarthNet.uav[36] utilizationEnergyMaintenance 90035.690357208
scalar OsgEarthNet.uav[36] utilizationEnergyCharge 204296.49951172
scalar OsgEarthNet.uav[36] utilizationEnergyOverdrawMission 0
scalar OsgEarthNet.uav[36] utilizationEnergyOverdrawMaintenance 0
scalar OsgEarthNet.uav[36] utilizationCountMissions 46
scalar OsgEarthNet.uav[36] utilizationCountManeuversMission 695
scalar OsgEarthNet.uav[36] utilizationCountManeuversMaintenance 92
scalar OsgEarthNet.uav[36] utilizationCountChargeState 46
scalar OsgEarthNet.uav[36] utilizationCountOverdrawnAfterMission 0
scalar OsgEarthNet.uav[36] utilizationCountIdleState 47
scalar OsgEarthNet.uav[36] utilizationFail 0
scalar OsgEarthNet.uav[36] simulationTime 259200
scalar OsgEarthNet.uav[37] utilizationSecMission 23527.89849855
scalar OsgEarthNet.uav[37] utilizationSecMaintenance 20210.423257252
scalar OsgEarthNet.uav[37] utilizationSecCharge 157584.36215798
scalar OsgEarthNet.uav[37] utilizationSecIdle 57877.315086215
scalar OsgEarthNet.uav[37] utilizationEnergyMission 114266.74269485
scalar OsgEarthNet.uav[37] utilizationEnergyMaintenance 93705.096683502
scalar OsgEarthNet.uav[37] utilizationEnergyCharge 206655.84448242
scalar OsgEarthNet.uav[37] utilizationEnergyOverdrawMission 0
scalar OsgEarthNet.uav[37] utilizationEnergyOverdrawMaintenance 0
scalar OsgEarthNet.uav[37] utilizationCountMissions 47
scalar OsgEarthNet.uav[37] utilizationCountManeuversMission 743
scalar OsgEarthNet.uav[37] utilizationCountManeuversMaintenance 94
scalar OsgEarthNet.uav[37] utilizationCountChargeState 47
scalar OsgEarthNet.uav[37] utilizationCountOverdrawnAfterMission 0
scalar OsgEarthNet.uav[37] utilizationCountIdleState 47
scalar OsgEarthNet.uav[37] utilizationFail 0
scalar OsgEarthNet.uav[37] simulationTime 259200
scalar OsgEarthNet.uav[38] utilizationSecMission 25172.795165047
scalar OsgEarthNet.uav[38] utilizationSecMaintenance 21195.201834953
scalar OsgEarthNet.uav[38] utilizationSecCharge 168760
scalar OsgEarthNet.uav[38] utilizationSecIdle 44072.002
scalar OsgEarthNet.uav[38] utilizationEnergyMission 124307.92363358
scalar OsgEarthNet.uav[38] utilizationEnergyMaintenance 98258.727638693
scalar OsgEarthNet.uav[38] utilizationEnergyCharge 219940.65356445
scalar OsgEarthNet.uav[38] utilizationEnergyOverdrawMission 0
scalar OsgEarthNet.uav[38] utilizationEnergyOverdrawMaintenance 0
scalar OsgEarthNet.uav[38] utilizationCountMissions 50
scalar OsgEarthNet.uav[38] utilizationCountManeuversMission 885
scalar OsgEarthNet.uav[38] utilizationCountManeuversMaintenance 101
scalar OsgEarthNet.uav[38] utilizationCountChargeState 50
scalar OsgEarthNet.uav[38] utilizationCountOverdrawnAfterMission 0
scalar OsgEarthNet.uav[38] utilizationCountIdleState 51
scalar OsgEarthNet.uav[38] utilizationFail 0
scalar OsgEarthNet.uav[38] simulationTime 259200
scalar OsgEarthNet.uav[39] utilizationSecMission 1005.048320916
scalar OsgEarthNet.uav[39] utilizationSecMaintenance 854.08395285695
scalar OsgEarthNet.uav[39] utilizationSecCharge 6950
scalar OsgEarthNet.uav[39] utilizationSecIdle 250390.86672623
scalar OsgEarthNet.uav[39] utilizationEnergyMission 5187.0373725891
scalar OsgEarthNet.uav[39] utilizationEnergyMaintenance 4268.5326766968
scalar OsgEarthNet.uav[39] utilizationEnergyCharge 9042.0795898438
scalar OsgEarthNet.uav[39] utilizationEnergyOverdrawMission 0
scalar OsgEarthNet.uav[39] utilizationEnergyOverdrawMaintenance 0
scalar OsgEarthNet.uav[39] utilizationCountMissions 2
scalar OsgEarthNet.uav[39] utilizationCountManeuversMission 34
scalar OsgEarthNet.uav[39] utilizationCountManeuversMaintenance 4
scalar OsgEarthNet.uav[39] utilizationCountChargeState 2
scalar OsgEarthNet.uav[39] utilizationCountOverdrawnAfterMission 0
scalar OsgEarthNet.uav[39] utilizationCountIdleState 3
scalar OsgEarthNet.uav[39] utilizationFail 0
scalar OsgEarthNet.uav[39] simulationTime 259200
scalar OsgEarthNet.uav[40] utilizationSecMission 27163.592846573
scalar OsgEarthNet.uav[40] utilizationSecMaintenance 23735.495922053
scalar OsgEarthNet.uav[40] utilizationSecCharge 184728.91023137
scalar OsgEarthNet.uav[40] utilizationSecIdle 23572
scalar OsgEarthNet.uav[40] utilizationEnergyMission 131112.28779221
scalar OsgEarthNet.uav[40] utilizationEnergyMaintenance 111709.94766235
scalar OsgEarthNet.uav[40] utilizationEnergyCharge 242013.1809082
scalar OsgEarthNet.uav[40] utilizationEnergyOverdrawMission 0
scalar OsgEarthNet.uav[40] utilizationEnergyOverdrawMaintenance 0
scalar OsgEarthNet.uav[40] utilizationCountMissions 55
scalar OsgEarthNet.uav[40] utilizationCountManeuversMission 886
scalar OsgEarthNet.uav[40] utilizationCountManeuversMaintenance 110
scalar OsgEarthNet.uav[40] utilizationCountChargeState 55
scalar OsgEarthNet.uav[40] utilizationCountOverdrawnAfterMission 0
scalar OsgEarthNet.uav[40] utilizationCountIdleState 55
scalar OsgEarthNet.uav[40] utilizationFail 0
scalar OsgEarthNet.uav[40] simulationTime 259200
scalar OsgEarthNet.uav[41] utilizationSecMission 26925.549130549
scalar OsgEarthNet.uav[41] utilizationSecMaintenance 19290.038813127
scalar OsgEarthNet.uav[41] utilizationSecCharge 166870
scalar OsgEarthNet.uav[41] utilizationSecIdle 46114.411056324
scalar OsgEarthNet.uav[41] utilizationEnergyMission 130297.60905838
scalar OsgEarthNet.uav[41] utilizationEnergyMaintenance 89068.437355041
scalar OsgEarthNet.uav[41] utilizationEnergyCharge 218674.94506836
scalar OsgEarthNet.uav[41] utilizationEnergyOverdrawMission 0
scalar OsgEarthNet.uav[41] utilizationEnergyOverdrawMaintenance 0
scalar OsgEarthNet.uav[41] utilizationCountMissions 49
scalar OsgEarthNet.uav[41] utilizationCountManeuversMission 787
scalar OsgEarthNet.uav[41] utilizationCountManeuversMaintenance 98
scalar OsgEarthNet.uav[41] utilizationCountChargeState 49
scalar OsgEarthNet.uav[41] utilizationCountOverdrawnAfterMission 0
scalar OsgEarthNet.uav[41] utilizationCountIdleState 49
scalar OsgEarthNet.uav[41] utilizationFail 0
scalar OsgEarthNet.uav[41] simulationTime 259200
scalar OsgEarthNet.uav[42] utilizationSecMission 19177.095768067
scalar OsgEarthNet.uav[42] utilizationSecMaintenance 17952.518507767
scalar OsgEarthNet.uav[42] utilizationSecCharge 134568.37972417
scalar OsgEarthNet.uav[42] utilizationSecIdle 87502.005
scalar OsgEarthNet.uav[42] utilizationEnergyMission 95996.614154816
scalar OsgEarthNet.uav[42] utilizationEnergyMaintenance 82889.74679184
scalar OsgEarthNet.uav[42] utilizationEnergyCharge 176777.96044922
scalar OsgEarthNet.uav[42] utilizationEnergyOverdrawMission 0
scalar OsgEarthNet.uav[42] utilizationEnergyOverdrawMaintenance 0
scalar OsgEarthNet.uav[42] utilizationCountMissions 40
scalar OsgEarthNet.uav[42] utilizationCountManeuversMission 667
scalar OsgEarthNet.uav[42] utilizationCountManeuversMaintenance 80
scalar OsgEarthNet.uav[42] utilizationCountChargeState 40
scalar OsgEarthNet.uav[42] utilizationCountOverdrawnAfterMission 0
scalar OsgEarthNet.uav[42] utilizationCountIdleState 40
scalar OsgEarthNet.uav[42] utilizationFail 0
scalar OsgEarthNet.uav[42] simulationTime 259200
scalar OsgEarthNet.uav[43] utilizationSecMission 13316.196312562
scalar OsgEarthNet.uav[43] utilizationSecMaintenance 14177.713583284
scalar OsgEarthNet.uav[43] utilizationSecCharge 100240
scalar OsgEarthNet.uav[43] utilizationSecIdle 131466.08910415
scalar OsgEarthNet.uav[43] utilizationEnergyMission 65650.086074829
scalar OsgEarthNet.uav[43] utilizationEnergyMaintenance 66087.3359375
scalar OsgEarthNet.uav[43] utilizationEnergyCharge 130799.15698242
scalar OsgEarthNet.uav[43] utilizationEnergyOverdrawMission 0
scalar OsgEarthNet.uav[43] utilizationEnergyOverdrawMaintenance 0
scalar OsgEarthNet.uav[43] utilizationCountMissions 30
scalar OsgEarthNet.uav[43] utilizationCountManeuversMission 469
scalar OsgEarthNet.uav[43] utilizationCountManeuversMaintenance 60
scalar OsgEarthNet.uav[43] utilizationCountChargeState 30
scalar OsgEarthNet.uav[43] utilizationCountOverdrawnAfterMission 0
scalar OsgEarthNet.uav[43] utilizationCountIdleState 31
scalar OsgEarthNet.uav[43] utilizationFail 0
scalar OsgEarthNet.uav[43] simulationTime 259200
scalar OsgEarthNet.uav[44] utilizationSecMission 25015.820316127
scalar OsgEarthNet.uav[44] utilizationSecMaintenance 22816.966039256
scalar OsgEarthNet.uav[44] utilizationSecCharge 173070
scalar OsgEarthNet.uav[44] utilizationSecIdle 38297.212644617
scalar OsgEarthNet.uav[44] utilizationEnergyMission 123936.34539032
scalar OsgEarthNet.uav[44] utilizationEnergyMaintenance 105211.46469879
scalar OsgEarthNet.uav[44] utilizationEnergyCharge 226488.1730957
scalar OsgEarthNet.uav[44] utilizationEnergyOverdrawMission 0
scalar OsgEarthNet.uav[44] utilizationEnergyOverdrawMaintenance 53.230072021484
scalar OsgEarthNet.uav[44] utilizationCountMissions 51
scalar OsgEarthNet.uav[44] utilizationCountManeuversMission 786
scalar OsgEarthNet.uav[44] utilizationCountManeuversMaintenance 102
scalar OsgEarthNet.uav[44] utilizationCountChargeState 51
scalar OsgEarthNet.uav[44] utilizationCountOverdrawnAfterMission 1
scalar OsgEarthNet.uav[44] utilizationCountIdleState 52
scalar OsgEarthNet.uav[44] utilizationFail 0
scalar OsgEarthNet.uav[44] simulationTime 259200
scalar OsgEarthNet.uav[45] utilizationSecMission 6726.3232216671
scalar OsgEarthNet.uav[45] utilizationSecMaintenance 6511.7050316354
scalar OsgEarthNet.uav[45] utilizationSecCharge 47990
scalar OsgEarthNet.uav[45] utilizationSecIdle 197971.9707467
scalar OsgEarthNet.uav[45] utilizationEnergyMission 33039.453453064
scalar OsgEarthNet.uav[45] utilizationEnergyMaintenance 30719.003868103
scalar OsgEarthNet.uav[45] utilizationEnergyCharge 62882.494384766
scalar OsgEarthNet.uav[45] utilizationEnergyOverdrawMission 0
scalar OsgEarthNet.uav[45] utilizationEnergyOverdrawMaintenance 0
scalar OsgEarthNet.uav[45] utilizationCountMissions 14
scalar OsgEarthNet.uav[45] utilizationCountManeuversMission 188
scalar OsgEarthNet.uav[45] utilizationCountManeuversMaintenance 28
scalar OsgEarthNet.uav[45] utilizationCountChargeState 14
scalar OsgEarthNet.uav[45] utilizationCountOverdrawnAfterMission 0
scalar OsgEarthNet.uav[45] utilizationCountIdleState 15
scalar OsgEarthNet.uav[45] utilizationFail 0
scalar OsgEarthNet.uav[45] simulationTime 259200
scalar OsgEarthNet.uav[46] utilizationSecMission 27398.794878053
scalar OsgEarthNet.uav[46] utilizationSecMaintenance 24293.354580321
scalar OsgEarthNet.uav[46] utilizationSecCharge 185175.84954163
scalar OsgEarthNet.uav[46] utilizationSecIdle 22332
scalar OsgEarthNet.uav[46] utilizationEnergyMission 135481.61078644
scalar OsgEarthNet.uav[46] utilizationEnergyMaintenance 113268.55086136
scalar OsgEarthNet.uav[46] utilizationEnergyCharge 243724.00817871
scalar OsgEarthNet.uav[46] utilizationEnergyOverdrawMission 0
scalar OsgEarthNet.uav[46] utilizationEnergyOverdrawMaintenance 161.1586151123
scalar OsgEarthNet.uav[46] utilizationCountMissions 55
scalar OsgEarthNet.uav[46] utilizationCountManeuversMission 912
scalar OsgEarthNet.uav[46] utilizationCountManeuversMaintenance 109
scalar OsgEarthNet.uav[46] utilizationCountChargeState 55
scalar OsgEarthNet.uav[46] utilizationCountOverdrawnAfterMission 1
scalar OsgEarthNet.uav[46] utilizationCountIdleState 54
scalar OsgEarthNet.uav[46] utilizationFail 0
scalar OsgEarthNet.uav[46] simulationTime 259200
scalar OsgEarthNet.uav[47] utilizationSecMission 26992.73244394
scalar OsgEarthNet.uav[47] utilizationSecMaintenance 24209.220687185
scalar OsgEarthNet.uav[47] utilizationSecCharge 182696.04586888
scalar OsgEarthNet.uav[47] utilizationSecIdle 25302
scalar OsgEarthNet.uav[47] utilizationEnergyMission 130226.36188507
scalar OsgEarthNet.uav[47] utilizationEnergyMaintenance 111831.39050293
scalar OsgEarthNet.uav[47] utilizationEnergyCharge 238409.1072998
scalar OsgEarthNet.uav[47] utilizationEnergyOverdrawMission 0
scalar OsgEarthNet.uav[47] utilizationEnergyOverdrawMaintenance 0
scalar OsgEarthNet.uav[47] utilizationCountMissions 55
scalar OsgEarthNet.uav[47] utilizationCountManeuversMission 796
scalar OsgEarthNet.uav[47] utilizationCountManeuversMaintenance 110
scalar OsgEarthNet.uav[47] utilizationCountChargeState 55
scalar OsgEarthNet.uav[47] utilizationCountOverdrawnAfterMission 0
scalar OsgEarthNet.uav[47] utilizationCountIdleState 55
scalar OsgEarthNet.uav[47] utilizationFail 0
scalar OsgEarthNet.uav[47] simulationTime 259200
scalar OsgEarthNet.uav[48] utilizationSecMission 20047.286860454
scalar OsgEarthNet.uav[48] utilizationSecMaintenance 20562.209865466
scalar OsgEarthNet.uav[48] utilizationSecCharge 145473.79691168
scalar OsgEarthNet.uav[48] utilizationSecIdle 73116.705362404
scalar OsgEarthNet.uav[48] utilizationEnergyMission 97593.699054718
scalar OsgEarthNet.uav[48] utilizationEnergyMaintenance 94864.082279205
scalar OsgEarthNet.uav[48] utilizationEnergyCharge 191698.65209961
scalar OsgEarthNet.uav[48] utilizationEnergyOverdrawMission 0
scalar OsgEarthNet.uav[48] utilizationEnergyOverdrawMaintenance 0
scalar OsgEarthNet.uav[48] utilizationCountMissions 43
scalar OsgEarthNet.uav[48] utilizationCountManeuversMission 639
scalar OsgEarthNet.uav[48] utilizationCountManeuversMaintenance 86
scalar OsgEarthNet.uav[48] utilizationCountChargeState 43
scalar OsgEarthNet.uav[48] utilizationCountOverdrawnAfterMission 0
scalar OsgEarthNet.uav[48] utilizationCountIdleState 43
scalar OsgEarthNet.uav[48] utilizationFail 0
scalar OsgEarthNet.uav[48] simulationTime 259200
scalar OsgEarthNet.uav[49] utilizationSecMission 26727.378534019
scalar OsgEarthNet.uav[49] utilizationSecMaintenance 24627.77198359
scalar OsgEarthNet.uav[49] utilizationSecCharge 183482.84548239
scalar OsgEarthNet.uav[49] utilizationSecIdle 24362.003
scalar OsgEarthNet.uav[49] utilizationEnergyMission 130176.82299423
scalar OsgEarthNet.uav[49] utilizationEnergyMaintenance 114128.89817429
scalar OsgEarthNet.uav[49] utilizationEnergyCharge 241025.15161133
scalar OsgEarthNet.uav[49] utilizationEnergyOverdrawMission 0
scalar OsgEarthNet.uav[49] utilizationEnergyOverdrawMaintenance 0
scalar OsgEarthNet.uav[49] utilizationCountMissions 55
scalar OsgEarthNet.uav[49] utilizationCountManeuversMission 850
scalar OsgEarthNet.uav[49] utilizationCountManeuversMaintenance 110
scalar OsgEarthNet.uav[49] utilizationCountChargeState 55
scalar OsgEarthNet.uav[49] utilizationCountOverdrawnAfterMission 0
scalar OsgEarthNet.uav[49] utilizationCountIdleState 54
scalar OsgEarthNet.uav[49] utilizationFail 0
scalar OsgEarthNet.uav[49] simulationTime 259200
scalar OsgEarthNet.uav[50] utilizationSecMission 26711.299164189
scalar OsgEarthNet.uav[50] utilizationSecMaintenance 23512.315407701
scalar OsgEarthNet.uav[50] utilizationSecCharge 181314.24461497
scalar OsgEarthNet.uav[50] utilizationSecIdle 27662.139813144
scalar OsgEarthNet.uav[50] utilizationEnergyMission 128806.33419037
scalar OsgEarthNet.uav[50] utilizationEnergyMaintenance 108807.56798172
scalar OsgEarthNet.uav[50] utilizationEnergyCharge 238733.80810547
scalar OsgEarthNet.uav[50] utilizationEnergyOverdrawMission 0
scalar OsgEarthNet.uav[50] utilizationEnergyOverdrawMaintenance 144.04205322266
scalar OsgEarthNet.uav[50] utilizationCountMissions 53
scalar OsgEarthNet.uav[50] utilizationCountManeuversMission 842
scalar OsgEarthNet.uav[50] utilizationCountManeuversMaintenance 106
scalar OsgEarthNet.uav[50] utilizationCountChargeState 53
scalar OsgEarthNet.uav[50] utilizationCountOverdrawnAfterMission 1
scalar OsgEarthNet.uav[50] utilizationCountIdleState 53
scalar OsgEarthNet.uav[50] utilizationFail 0
scalar OsgEarthNet.uav[50] simulationTime 259200
scalar OsgEarthNet.uav[51] utilizationSecMission 28241.22814806
scalar OsgEarthNet.uav[51] utilizationSecMaintenance 22633.585456781
scalar OsgEarthNet.uav[51] utilizationSecCharge 183933.18439516
scalar OsgEarthNet.uav[51] utilizationSecIdle 24392.001
scalar OsgEarthNet.uav[51] utilizationEnergyMission 138011.78209686
scalar OsgEarthNet.uav[51] utilizationEnergyMaintenance 105183.90956879
scalar OsgEarthNet.uav[51] utilizationEnergyCharge 242061.35961914
scalar OsgEarthNet.uav[51] utilizationEnergyOverdrawMission 0
scalar OsgEarthNet.uav[51] utilizationEnergyOverdrawMaintenance 0
scalar OsgEarthNet.uav[51] utilizationCountMissions 54
scalar OsgEarthNet.uav[51] utilizationCountManeuversMission 816
scalar OsgEarthNet.uav[51] utilizationCountManeuversMaintenance 108
scalar OsgEarthNet.uav[51] utilizationCountChargeState 54
scalar OsgEarthNet.uav[51] utilizationCountOverdrawnAfterMission 0
scalar OsgEarthNet.uav[51] utilizationCountIdleState 54
scalar OsgEarthNet.uav[51] utilizationFail 0
scalar OsgEarthNet.uav[51] simulationTime 259200
scalar OsgEarthNet.uav[52] utilizationSecMission 18183.974114056
scalar OsgEarthNet.uav[52] utilizationSecMaintenance 18622.499554712
scalar OsgEarthNet.uav[52] utilizationSecCharge 135330
scalar OsgEarthNet.uav[52] utilizationSecIdle 87063.525331232
scalar OsgEarthNet.uav[52] utilizationEnergyMission 89353.419464111
scalar OsgEarthNet.uav[52] utilizationEnergyMaintenance 86917.050618131
scalar OsgEarthNet.uav[52] utilizationEnergyCharge 176885.14990234
scalar OsgEarthNet.uav[52] utilizationEnergyOverdrawMission 0
scalar OsgEarthNet.uav[52] utilizationEnergyOverdrawMaintenance 0
scalar OsgEarthNet.uav[52] utilizationCountMissions 40
scalar OsgEarthNet.uav[52] utilizationCountManeuversMission 689
scalar OsgEarthNet.uav[52] utilizationCountManeuversMaintenance 81
scalar OsgEarthNet.uav[52] utilizationCountChargeState 40
scalar OsgEarthNet.uav[52] utilizationCountOverdrawnAfterMission 0
scalar OsgEarthNet.uav[52] utilizationCountIdleState 41
scalar OsgEarthNet.uav[52] utilizationFail 0
scalar OsgEarthNet.uav[52] simulationTime 259200
scalar OsgEarthNet.uav[53] utilizationSecMission 6643.8974500539
scalar OsgEarthNet.uav[53] utilizationSecMaintenance 6570.9130777572
scalar OsgEarthNet.uav[53] utilizationSecCharge 47710
scalar OsgEarthNet.uav[53] utilizationSecIdle 198275.18847219
scalar OsgEarthNet.uav[53] utilizationEnergyMission 32302.615592957
scalar OsgEarthNet.uav[53] utilizationEnergyMaintenance 30281.643180847
scalar OsgEarthNet.uav[53] utilizationEnergyCharge 62469.338134766
scalar OsgEarthNet.uav[53] utilizationEnergyOverdrawMission 0
scalar OsgEarthNet.uav[53] utilizationEnergyOverdrawMaintenance 0
scalar OsgEarthNet.uav[53] utilizationCountMissions 14
scalar OsgEarthNet.uav[53] utilizationCountManeuversMission 214
scalar OsgEarthNet.uav[53] utilizationCountManeuversMaintenance 28
scalar OsgEarthNet.uav[53] utilizationCountChargeState 14
scalar OsgEarthNet.uav[53] utilizationCountOverdrawnAfterMission 0
scalar OsgEarthNet.uav[53] utilizationCountIdleState 15
scalar OsgEarthNet.uav[53] utilizationFail 0
scalar OsgEarthNet.uav[53] simulationTime 259200
scalar OsgEarthNet.uav[54] utilizationSecMission 10436.708942936
scalar OsgEarthNet.uav[54] utilizationSecMaintenance 11359.606557823
scalar OsgEarthNet.uav[54] utilizationSecCharge 79930
scalar OsgEarthNet.uav[54] utilizationSecIdle 157473.68349924
scalar OsgEarthNet.uav[54] utilizationEnergyMission 51511.705631256
scalar OsgEarthNet.uav[54] utilizationEnergyMaintenance 52715.154178619
scalar OsgEarthNet.uav[54] utilizationEnergyCharge 103654.62426758
scalar OsgEarthNet.uav[54] utilizationEnergyOverdrawMission 0
scalar OsgEarthNet.uav[54] utilizationEnergyOverdrawMaintenance 0
scalar OsgEarthNet.uav[54] utilizationCountMissions 24
scalar OsgEarthNet.uav[54] utilizationCountManeuversMission 398
scalar OsgEarthNet.uav[54] utilizationCountManeuversMaintenance 48
scalar OsgEarthNet.uav[54] utilizationCountChargeState 24
scalar OsgEarthNet.uav[54] utilizationCountOverdrawnAfterMission 0
scalar OsgEarthNet.uav[54] utilizationCountIdleState 25
scalar OsgEarthNet.uav[54] utilizationFail 0
scalar OsgEarthNet.uav[54] simulationTime 259200
scalar OsgEarthNet.uav[55] utilizationSecMission 21315.582241976
scalar OsgEarthNet.uav[55] utilizationSecMaintenance 18670.462813553
scalar OsgEarthNet.uav[55] utilizationSecCharge 142291.94994447
scalar OsgEarthNet.uav[55] utilizationSecIdle 76922.004
scalar OsgEarthNet.uav[55] utilizationEnergyMission 102971.28321457
scalar OsgEarthNet.uav[55] utilizationEnergyMaintenance 85653.139221191
scalar OsgEarthNet.uav[55] utilizationEnergyCharge 188032.34594727
scalar OsgEarthNet.uav[55] utilizationEnergyOverdrawMission 0
scalar OsgEarthNet.uav[55] utilizationEnergyOverdrawMaintenance 0
scalar OsgEarthNet.uav[55] utilizationCountMissions 42
scalar OsgEarthNet.uav[55] utilizationCountManeuversMission 609
scalar OsgEarthNet.uav[55] utilizationCountManeuversMaintenance 84
scalar OsgEarthNet.uav[55] utilizationCountChargeState 42
scalar OsgEarthNet.uav[55] utilizationCountOverdrawnAfterMission 0
scalar OsgEarthNet.uav[55] utilizationCountIdleState 41
scalar OsgEarthNet.uav[55] utilizationFail 0
scalar OsgEarthNet.uav[55] simulationTime 259200
scalar OsgEarthNet.uav[56] utilizationSecMission 17690.308797328
scalar OsgEarthNet.uav[56] utilizationSecMaintenance 16586.399844396
scalar OsgEarthNet.uav[56] utilizationSecCharge 124021.28835828
scalar OsgEarthNet.uav[56] utilizationSecIdle 100902.002
scalar OsgEarthNet.uav[56] utilizationEnergyMission 88468.388496399
scalar OsgEarthNet.uav[56] utilizationEnergyMaintenance 77196.961372375
scalar OsgEarthNet.uav[56] utilizationEnergyCharge 164303.8972168
scalar OsgEarthNet.uav[56] utilizationEnergyOverdrawMission 0
scalar OsgEarthNet.uav[56] utilizationEnergyOverdrawMaintenance 0
scalar OsgEarthNet.uav[56] utilizationCountMissions 37
scalar OsgEarthNet.uav[56] utilizationCountManeuversMission 589
scalar OsgEarthNet.uav[56] utilizationCountManeuversMaintenance 74
scalar OsgEarthNet.uav[56] utilizationCountChargeState 37
scalar OsgEarthNet.uav[56] utilizationCountOverdrawnAfterMission 0
scalar OsgEarthNet.uav[56] utilizationCountIdleState 33
scalar OsgEarthNet.uav[56] utilizationFail 0
scalar OsgEarthNet.uav[56] simulationTime 259200
scalar OsgEarthNet.uav[57] utilizationSecMission 18083.142273492
scalar OsgEarthNet.uav[57] utilizationSecMaintenance 18770.095062662
scalar OsgEarthNet.uav[57] utilizationSecCharge 129406.28415078
scalar OsgEarthNet.uav[57] utilizationSecIdle 92940.47751307
scalar OsgEarthNet.uav[57] utilizationEnergyMission 85404.491588593
scalar OsgEarthNet.uav[57] utilizationEnergyMaintenance 86980.367500305
scalar OsgEarthNet.uav[57] utilizationEnergyCharge 170263.04248047
scalar OsgEarthNet.uav[57] utilizationEnergyOverdrawMission 0
scalar OsgEarthNet.uav[57] utilizationEnergyOverdrawMaintenance 22.322063446045
scalar OsgEarthNet.uav[57] utilizationCountMissions 39
scalar OsgEarthNet.uav[57] utilizationCountManeuversMission 570
scalar OsgEarthNet.uav[57] utilizationCountManeuversMaintenance 78
scalar OsgEarthNet.uav[57] utilizationCountChargeState 39
scalar OsgEarthNet.uav[57] utilizationCountOverdrawnAfterMission 1
scalar OsgEarthNet.uav[57] utilizationCountIdleState 37
scalar OsgEarthNet.uav[57] utilizationFail 0
scalar OsgEarthNet.uav[57] simulationTime 259200
scalar OsgEarthNet.uav[58] utilizationSecMission 28668.661630213
scalar OsgEarthNet.uav[58] utilizationSecMaintenance 23490.891689862
scalar OsgEarthNet.uav[58] utilizationSecCharge 186798.44567992
scalar OsgEarthNet.uav[58] utilizationSecIdle 20242
scalar OsgEarthNet.uav[58] utilizationEnergyMission 136682.73991394
scalar OsgEarthNet.uav[58] utilizationEnergyMaintenance 110490.37886047
scalar OsgEarthNet.uav[58] utilizationEnergyCharge 246385.59619141
scalar OsgEarthNet.uav[58] utilizationEnergyOverdrawMission 0
scalar OsgEarthNet.uav[58] utilizationEnergyOverdrawMaintenance 0
scalar OsgEarthNet.uav[58] utilizationCountMissions 55
scalar OsgEarthNet.uav[58] utilizationCountManeuversMission 808
scalar OsgEarthNet.uav[58] utilizationCountManeuversMaintenance 110
scalar OsgEarthNet.uav[58] utilizationCountChargeState 55
scalar OsgEarthNet.uav[58] utilizationCountOverdrawnAfterMission 0
scalar OsgEarthNet.uav[58] utilizationCountIdleState 52
scalar OsgEarthNet.uav[58] utilizationFail 0
scalar OsgEarthNet.uav[58] simulationTime 259200
scalar OsgEarthNet.uav[59] utilizationSecMission 19446.875455828
scalar OsgEarthNet.uav[59] utilizationSecMaintenance 17812.783259399
scalar OsgEarthNet.uav[59] utilizationSecCharge 133815.19078776
scalar OsgEarthNet.uav[59] utilizationSecIdle 88125.149497016
scalar OsgEarthNet.uav[59] utilizationEnergyMission 95812.896244049
scalar OsgEarthNet.uav[59] utilizationEnergyMaintenance 83799.85691452
scalar OsgEarthNet.uav[59] utilizationEnergyCharge 177120.22314453
scalar OsgEarthNet.uav[59] utilizationEnergyOverdrawMission 0
scalar OsgEarthNet.uav[59] utilizationEnergyOverdrawMaintenance 0
scalar OsgEarthNet.uav[59] utilizationCountMissions 40
scalar OsgEarthNet.uav[59] utilizationCountManeuversMission 653
scalar OsgEarthNet.uav[59] utilizationCountManeuversMaintenance 80
scalar OsgEarthNet.uav[59] utilizationCountChargeState 40
scalar OsgEarthNet.uav[59] utilizationCountOverdrawnAfterMission 0
scalar OsgEarthNet.uav[59] utilizationCountIdleState 36
scalar OsgEarthNet.uav[59] utilizationFail 0
scalar OsgEarthNet.uav[59] simulationTime 259200
scalar OsgEarthNet.uav[60] utilizationSecMission 24830.936559725
scalar OsgEarthNet.uav[60] utilizationSecMaintenance 22273.029404525
scalar OsgEarthNet.uav[60] utilizationSecCharge 169244.02303575
scalar OsgEarthNet.uav[60] utilizationSecIdle 42852.01
scalar OsgEarthNet.uav[60] utilizationEnergyMission 120113.50804138
scalar OsgEarthNet.uav[60] utilizationEnergyMaintenance 104967.20882034
scalar OsgEarthNet.uav[60] utilizationEnergyCharge 224272.04833984
scalar OsgEarthNet.uav[60] utilizationEnergyOverdrawMission 0
scalar OsgEarthNet.uav[60] utilizationEnergyOverdrawMaintenance 468.19303512573
scalar OsgEarthNet.uav[60] utilizationCountMissions 50
scalar OsgEarthNet.uav[60] utilizationCountManeuversMission 796
scalar OsgEarthNet.uav[60] utilizationCountManeuversMaintenance 100
scalar OsgEarthNet.uav[60] utilizationCountChargeState 50
scalar OsgEarthNet.uav[60] utilizationCountOverdrawnAfterMission 2
scalar OsgEarthNet.uav[60] utilizationCountIdleState 42
scalar OsgEarthNet.uav[60] utilizationFail 0
scalar OsgEarthNet.uav[60] simulationTime 259200
scalar OsgEarthNet.uav[61] utilizationSecMission 25914.809593686
scalar OsgEarthNet.uav[61] utilizationSecMaintenance 22484.848400213
scalar OsgEarthNet.uav[61] utilizationSecCharge 173668.3320061
scalar OsgEarthNet.uav[61] utilizationSecIdle 37132.009
scalar OsgEarthNet.uav[61] utilizationEnergyMission 126248.74805832
scalar OsgEarthNet.uav[61] utilizationEnergyMaintenance 103793.30860901
scalar OsgEarthNet.uav[61] utilizationEnergyCharge 229890.25268555
scalar OsgEarthNet.uav[61] utilizationEnergyOverdrawMission 0
scalar OsgEarthNet.uav[61] utilizationEnergyOverdrawMaintenance 0
scalar OsgEarthNet.uav[61] utilizationCountMissions 51
scalar OsgEarthNet.uav[61] utilizationCountManeuversMission 769
scalar OsgEarthNet.uav[61] utilizationCountManeuversMaintenance 102
scalar OsgEarthNet.uav[61] utilizationCountChargeState 51
scalar OsgEarthNet.uav[61] utilizationCountOverdrawnAfterMission 0
scalar OsgEarthNet.uav[61] utilizationCountIdleState 47
scalar OsgEarthNet.uav[61] utilizationFail 0
scalar OsgEarthNet.uav[61] simulationTime 259200
scalar OsgEarthNet.uav[62] utilizationSecMission 22781.583510433
scalar OsgEarthNet.uav[62] utilizationSecMaintenance 21270.193738807
scalar OsgEarthNet.uav[62] utilizationSecCharge 158820
scalar OsgEarthNet.uav[62] utilizationSecIdle 56328.22175076
scalar OsgEarthNet.uav[62] utilizationEnergyMission 108326.94216919
scalar OsgEarthNet.uav[62] utilizationEnergyMaintenance 99999.153865814
scalar OsgEarthNet.uav[62] utilizationEnergyCharge 208081.33447266
scalar OsgEarthNet.uav[62] utilizationEnergyOverdrawMission 0
scalar OsgEarthNet.uav[62] utilizationEnergyOverdrawMaintenance 0
scalar OsgEarthNet.uav[62] utilizationCountMissions 47
scalar OsgEarthNet.uav[62] utilizationCountManeuversMission 673
scalar OsgEarthNet.uav[62] utilizationCountManeuversMaintenance 94
scalar OsgEarthNet.uav[62] utilizationCountChargeState 47
scalar OsgEarthNet.uav[62] utilizationCountOverdrawnAfterMission 0
scalar OsgEarthNet.uav[62] utilizationCountIdleState 44
scalar OsgEarthNet.uav[62] utilizationFail 0
scalar OsgEarthNet.uav[62] simulationTime 259200
scalar OsgEarthNet.uav[63] utilizationSecMission 24155.859004976
scalar OsgEarthNet.uav[63] utilizationSecMaintenance 23010.98871488
scalar OsgEarthNet.uav[63] utilizationSecCharge 168300.59507345
scalar OsgEarthNet.uav[63] utilizationSecIdle 43732.556206698
scalar OsgEarthNet.uav[63] utilizationEnergyMission 117093.59041595
scalar OsgEarthNet.uav[63] utilizationEnergyMaintenance 107630.31075668
scalar OsgEarthNet.uav[63] utilizationEnergyCharge 222399.3894043
scalar OsgEarthNet.uav[63] utilizationEnergyOverdrawMission 0
scalar OsgEarthNet.uav[63] utilizationEnergyOverdrawMaintenance 0
scalar OsgEarthNet.uav[63] utilizationCountMissions 50
scalar OsgEarthNet.uav[63] utilizationCountManeuversMission 745
scalar OsgEarthNet.uav[63] utilizationCountManeuversMaintenance 100
scalar OsgEarthNet.uav[63] utilizationCountChargeState 50
scalar OsgEarthNet.uav[63] utilizationCountOverdrawnAfterMission 0
scalar OsgEarthNet.uav[63] utilizationCountIdleState 44
scalar OsgEarthNet.uav[63] utilizationFail 0
scalar OsgEarthNet.uav[63] simulationTime 259200
scalar OsgEarthNet.uav[64] utilizationSecMission 26006.706170295
scalar OsgEarthNet.uav[64] utilizationSecMaintenance 23483.716347584
scalar OsgEarthNet.uav[64] utilizationSecCharge 177279.55817768
scalar OsgEarthNet.uav[64] utilizationSecIdle 32430.018304444
scalar OsgEarthNet.uav[64] utilizationEnergyMission 127164.93248749
scalar OsgEarthNet.uav[64] utilizationEnergyMaintenance 108769.44047928
scalar OsgEarthNet.uav[64] utilizationEnergyCharge 233108.99414062
scalar OsgEarthNet.uav[64] utilizationEnergyOverdrawMission 0
scalar OsgEarthNet.uav[64] utilizationEnergyOverdrawMaintenance 0
scalar OsgEarthNet.uav[64] utilizationCountMissions 53
scalar OsgEarthNet.uav[64] utilizationCountManeuversMission 810
scalar OsgEarthNet.uav[64] utilizationCountManeuversMaintenance 106
scalar OsgEarthNet.uav[64] utilizationCountChargeState 53
scalar OsgEarthNet.uav[64] utilizationCountOverdrawnAfterMission 0
scalar OsgEarthNet.uav[64] utilizationCountIdleState 47
scalar OsgEarthNet.uav[64] utilizationFail 0
scalar OsgEarthNet.uav[64] simulationTime 259200
scalar OsgEarthNet.uav[65] utilizationSecMission 25981.581335177
scalar OsgEarthNet.uav[65] utilizationSecMaintenance 22844.64008841
scalar OsgEarthNet.uav[65] utilizationSecCharge 176791.77657641
scalar OsgEarthNet.uav[65] utilizationSecIdle 33582.001
scalar OsgEarthNet.uav[65] utilizationEnergyMission 126661.02726364
scalar OsgEarthNet.uav[65] utilizationEnergyMaintenance 106437.76641464
scalar OsgEarthNet.uav[65] utilizationEnergyCharge 232409.2722168
scalar OsgEarthNet.uav[65] utilizationEnergyOverdrawMission 0
[...]
scalar OsgEarthNet.uav[81] utilizationCountManeuversMission 834
scalar OsgEarthNet.uav[81] utilizationCountManeuversMaintenance 120
scalar OsgEarthNet.uav[81] utilizationCountChargeState 59
scalar OsgEarthNet.uav[81] utilizationCountOverdrawnAfterMission 0
scalar OsgEarthNet.uav[81] utilizationCountIdleState 25
scalar OsgEarthNet.uav[81] utilizationFail 0
scalar OsgEarthNet.uav[81] simulationTime 259200
scalar OsgEarthNet.uav[82] utilizationSecMission 29240.361103626
scalar OsgEarthNet.uav[82] utilizationSecMaintenance 26303.431173995
scalar OsgEarthNet.uav[82] utilizationSecCharge 195776.98710846
scalar OsgEarthNet.uav[82] utilizationSecIdle 7879.2196139157
scalar OsgEarthNet.uav[82] utilizationEnergyMission 143900.98083115
scalar OsgEarthNet.uav[82] utilizationEnergyMaintenance 122506.93894958
scalar OsgEarthNet.uav[82] utilizationEnergyCharge 262176.59777832
scalar OsgEarthNet.uav[82] utilizationEnergyOverdrawMission 0
scalar OsgEarthNet.uav[82] utilizationEnergyOverdrawMaintenance 0
scalar OsgEarthNet.uav[82] utilizationCountMissions 60
scalar OsgEarthNet.uav[82] utilizationCountManeuversMission 1006
scalar OsgEarthNet.uav[82] utilizationCountManeuversMaintenance 120
scalar OsgEarthNet.uav[82] utilizationCountChargeState 60
scalar OsgEarthNet.uav[82] utilizationCountOverdrawnAfterMission 0
scalar OsgEarthNet.uav[82] utilizationCountIdleState 24
scalar OsgEarthNet.uav[82] utilizationFail 0
scalar OsgEarthNet.uav[82] simulationTime 259200
scalar OsgEarthNet.uav[83] utilizationSecMission 29408.077746139
scalar OsgEarthNet.uav[83] utilizationSecMaintenance 25187.617511408
scalar OsgEarthNet.uav[83] utilizationSecCharge 191632.29274245
scalar OsgEarthNet.uav[83] utilizationSecIdle 12972.011
scalar OsgEarthNet.uav[83] utilizationEnergyMission 141985.46563721
scalar OsgEarthNet.uav[83] utilizationEnergyMaintenance 117159.98733139
scalar OsgEarthNet.uav[83] utilizationEnergyCharge 256578.09301758
scalar OsgEarthNet.uav[83] utilizationEnergyOverdrawMission 0
scalar OsgEarthNet.uav[83] utilizationEnergyOverdrawMaintenance 0
scalar OsgEarthNet.uav[83] utilizationCountMissions 58
scalar OsgEarthNet.uav[83] utilizationCountManeuversMission 828
scalar OsgEarthNet.uav[83] utilizationCountManeuversMaintenance 116
scalar OsgEarthNet.uav[83] utilizationCountChargeState 58
scalar OsgEarthNet.uav[83] utilizationCountOverdrawnAfterMission 0
scalar OsgEarthNet.uav[83] utilizationCountIdleState 32
scalar OsgEarthNet.uav[83] utilizationFail 0
scalar OsgEarthNet.uav[83] simulationTime 259200
scalar OsgEarthNet.uav[84] utilizationSecMission 28117.208992817
scalar OsgEarthNet.uav[84] utilizationSecMaintenance 26546.166558584
scalar OsgEarthNet.uav[84] utilizationSecCharge 191731.17535991
scalar OsgEarthNet.uav[84] utilizationSecIdle 12805.448088691
scalar OsgEarthNet.uav[84] utilizationEnergyMission 134556.97900772
scalar OsgEarthNet.uav[84] utilizationEnergyMaintenance 124387.6044693
scalar OsgEarthNet.uav[84] utilizationEnergyCharge 259166.6652832
scalar OsgEarthNet.uav[84] utilizationEnergyOverdrawMission 0
scalar OsgEarthNet.uav[84] utilizationEnergyOverdrawMaintenance 10.620632171631
scalar OsgEarthNet.uav[84] utilizationCountMissions 58
scalar OsgEarthNet.uav[84] utilizationCountManeuversMission 885
scalar OsgEarthNet.uav[84] utilizationCountManeuversMaintenance 116
scalar OsgEarthNet.uav[84] utilizationCountChargeState 58
scalar OsgEarthNet.uav[84] utilizationCountOverdrawnAfterMission 1
scalar OsgEarthNet.uav[84] utilizationCountIdleState 29
scalar OsgEarthNet.uav[84] utilizationFail 0
scalar OsgEarthNet.uav[84] simulationTime 259200
scalar OsgEarthNet.uav[85] utilizationSecMission 29937.330096503
scalar OsgEarthNet.uav[85] utilizationSecMaintenance 26220.739593867
scalar OsgEarthNet.uav[85] utilizationSecCharge 196499.92630963
scalar OsgEarthNet.uav[85] utilizationSecIdle 6542.003
scalar OsgEarthNet.uav[85] utilizationEnergyMission 144448.08815765
scalar OsgEarthNet.uav[85] utilizationEnergyMaintenance 121976.3788681
scalar OsgEarthNet.uav[85] utilizationEnergyCharge 264654.94396973
scalar OsgEarthNet.uav[85] utilizationEnergyOverdrawMission 0
scalar OsgEarthNet.uav[85] utilizationEnergyOverdrawMaintenance 0
scalar OsgEarthNet.uav[85] utilizationCountMissions 60
scalar OsgEarthNet.uav[85] utilizationCountManeuversMission 936
scalar OsgEarthNet.uav[85] utilizationCountManeuversMaintenance 120
scalar OsgEarthNet.uav[85] utilizationCountChargeState 60
scalar OsgEarthNet.uav[85] utilizationCountOverdrawnAfterMission 0
scalar OsgEarthNet.uav[85] utilizationCountIdleState 24
scalar OsgEarthNet.uav[85] utilizationFail 0
scalar OsgEarthNet.uav[85] simulationTime 259200
scalar OsgEarthNet.uav[86] utilizationSecMission 29723.737256086
scalar OsgEarthNet.uav[86] utilizationSecMaintenance 25260.663891872
scalar OsgEarthNet.uav[86] utilizationSecCharge 193483.59185204
scalar OsgEarthNet.uav[86] utilizationSecIdle 10732.006
scalar OsgEarthNet.uav[86] utilizationEnergyMission 143383.18532562
scalar OsgEarthNet.uav[86] utilizationEnergyMaintenance 119289.54830933
scalar OsgEarthNet.uav[86] utilizationEnergyCharge 258423.98327637
scalar OsgEarthNet.uav[86] utilizationEnergyOverdrawMission 0
scalar OsgEarthNet.uav[86] utilizationEnergyOverdrawMaintenance 0
scalar OsgEarthNet.uav[86] utilizationCountMissions 59
scalar OsgEarthNet.uav[86] utilizationCountManeuversMission 937
scalar OsgEarthNet.uav[86] utilizationCountManeuversMaintenance 118
scalar OsgEarthNet.uav[86] utilizationCountChargeState 59
scalar OsgEarthNet.uav[86] utilizationCountOverdrawnAfterMission 0
scalar OsgEarthNet.uav[86] utilizationCountIdleState 31
scalar OsgEarthNet.uav[86] utilizationFail 0
scalar OsgEarthNet.uav[86] simulationTime 259200
scalar OsgEarthNet.uav[87] utilizationSecMission 27835.770300282
scalar OsgEarthNet.uav[87] utilizationSecMaintenance 28032.215895847
scalar OsgEarthNet.uav[87] utilizationSecCharge 194476.56371518
scalar OsgEarthNet.uav[87] utilizationSecIdle 8855.449088691
scalar OsgEarthNet.uav[87] utilizationEnergyMission 132571.15821457
scalar OsgEarthNet.uav[87] utilizationEnergyMaintenance 130346.23046112
scalar OsgEarthNet.uav[87] utilizationEnergyCharge 263209.23657227
scalar OsgEarthNet.uav[87] utilizationEnergyOverdrawMission 0
scalar OsgEarthNet.uav[87] utilizationEnergyOverdrawMaintenance 0
scalar OsgEarthNet.uav[87] utilizationCountMissions 59
scalar OsgEarthNet.uav[87] utilizationCountManeuversMission 788
scalar OsgEarthNet.uav[87] utilizationCountManeuversMaintenance 118
scalar OsgEarthNet.uav[87] utilizationCountChargeState 59
scalar OsgEarthNet.uav[87] utilizationCountOverdrawnAfterMission 0
scalar OsgEarthNet.uav[87] utilizationCountIdleState 21
scalar OsgEarthNet.uav[87] utilizationFail 0
scalar OsgEarthNet.uav[87] simulationTime 259200
scalar OsgEarthNet.uav[88] utilizationSecMission 30349.469291087
scalar OsgEarthNet.uav[88] utilizationSecMaintenance 25989.745925283
scalar OsgEarthNet.uav[88] utilizationSecCharge 196538.78078363
scalar OsgEarthNet.uav[88] utilizationSecIdle 6322.003
scalar OsgEarthNet.uav[88] utilizationEnergyMission 144027.9577713
scalar OsgEarthNet.uav[88] utilizationEnergyMaintenance 121811.16485596
scalar OsgEarthNet.uav[88] utilizationEnergyCharge 264058.66870117
scalar OsgEarthNet.uav[88] utilizationEnergyOverdrawMission 0
scalar OsgEarthNet.uav[88] utilizationEnergyOverdrawMaintenance 0
scalar OsgEarthNet.uav[88] utilizationCountMissions 60
scalar OsgEarthNet.uav[88] utilizationCountManeuversMission 876
scalar OsgEarthNet.uav[88] utilizationCountManeuversMaintenance 120
scalar OsgEarthNet.uav[88] utilizationCountChargeState 60
scalar OsgEarthNet.uav[88] utilizationCountOverdrawnAfterMission 0
scalar OsgEarthNet.uav[88] utilizationCountIdleState 25
scalar OsgEarthNet.uav[88] utilizationFail 0
scalar OsgEarthNet.uav[88] simulationTime 259200
scalar OsgEarthNet.uav[89] utilizationSecMission 27283.765971266
scalar OsgEarthNet.uav[89] utilizationSecMaintenance 28759.026014199
scalar OsgEarthNet.uav[89] utilizationSecCharge 195306.25675887
scalar OsgEarthNet.uav[89] utilizationSecIdle 7850.9502556647
scalar OsgEarthNet.uav[89] utilizationEnergyMission 130905.51451492
scalar OsgEarthNet.uav[89] utilizationEnergyMaintenance 134435.29914474
scalar OsgEarthNet.uav[89] utilizationEnergyCharge 263951.89306641
scalar OsgEarthNet.uav[89] utilizationEnergyOverdrawMission 0
scalar OsgEarthNet.uav[89] utilizationEnergyOverdrawMaintenance 313.96649932861
scalar OsgEarthNet.uav[89] utilizationCountMissions 60
scalar OsgEarthNet.uav[89] utilizationCountManeuversMission 830
scalar OsgEarthNet.uav[89] utilizationCountManeuversMaintenance 120
scalar OsgEarthNet.uav[89] utilizationCountChargeState 60
scalar OsgEarthNet.uav[89] utilizationCountOverdrawnAfterMission 2
scalar OsgEarthNet.uav[89] utilizationCountIdleState 22
scalar OsgEarthNet.uav[89] utilizationFail 0
scalar OsgEarthNet.uav[89] simulationTime 259200
scalar OsgEarthNet.uav[90] utilizationSecMission 29249.311645621
scalar OsgEarthNet.uav[90] utilizationSecMaintenance 27327.965527007
scalar OsgEarthNet.uav[90] utilizationSecCharge 195550.71482737
scalar OsgEarthNet.uav[90] utilizationSecIdle 7072.007
scalar OsgEarthNet.uav[90] utilizationEnergyMission 142197.57390213
scalar OsgEarthNet.uav[90] utilizationEnergyMaintenance 127633.57859039
scalar OsgEarthNet.uav[90] utilizationEnergyCharge 263864.59790039
scalar OsgEarthNet.uav[90] utilizationEnergyOverdrawMission 0
scalar OsgEarthNet.uav[90] utilizationEnergyOverdrawMaintenance 178.70243835449
scalar OsgEarthNet.uav[90] utilizationCountMissions 60
scalar OsgEarthNet.uav[90] utilizationCountManeuversMission 986
scalar OsgEarthNet.uav[90] utilizationCountManeuversMaintenance 120
scalar OsgEarthNet.uav[90] utilizationCountChargeState 60
scalar OsgEarthNet.uav[90] utilizationCountOverdrawnAfterMission 1
scalar OsgEarthNet.uav[90] utilizationCountIdleState 28
scalar OsgEarthNet.uav[90] utilizationFail 0
scalar OsgEarthNet.uav[90] simulationTime 259200
scalar OsgEarthNet.uav[91] utilizationSecMission 29455.774900074
scalar OsgEarthNet.uav[91] utilizationSecMaintenance 26229.850402862
scalar OsgEarthNet.uav[91] utilizationSecCharge 192870.61467487
scalar OsgEarthNet.uav[91] utilizationSecIdle 10643.759022191
scalar OsgEarthNet.uav[91] utilizationEnergyMission 140884.02585983
scalar OsgEarthNet.uav[91] utilizationEnergyMaintenance 122571.13513565
scalar OsgEarthNet.uav[91] utilizationEnergyCharge 259360.97723389
scalar OsgEarthNet.uav[91] utilizationEnergyOverdrawMission 0
scalar OsgEarthNet.uav[91] utilizationEnergyOverdrawMaintenance 0
scalar OsgEarthNet.uav[91] utilizationCountMissions 59
scalar OsgEarthNet.uav[91] utilizationCountManeuversMission 880
scalar OsgEarthNet.uav[91] utilizationCountManeuversMaintenance 118
scalar OsgEarthNet.uav[91] utilizationCountChargeState 59
scalar OsgEarthNet.uav[91] utilizationCountOverdrawnAfterMission 0
scalar OsgEarthNet.uav[91] utilizationCountIdleState 26
scalar OsgEarthNet.uav[91] utilizationFail 0
scalar OsgEarthNet.uav[91] simulationTime 259200
scalar OsgEarthNet.uav[92] utilizationSecMission 28856.659288735
scalar OsgEarthNet.uav[92] utilizationSecMaintenance 26889.347981706
scalar OsgEarthNet.uav[92] utilizationSecCharge 194923.29128792
scalar OsgEarthNet.uav[92] utilizationSecIdle 8530.7004416429
scalar OsgEarthNet.uav[92] utilizationEnergyMission 138722.02804184
scalar OsgEarthNet.uav[92] utilizationEnergyMaintenance 125319.59980011
scalar OsgEarthNet.uav[92] utilizationEnergyCharge 263075.16186523
scalar OsgEarthNet.uav[92] utilizationEnergyOverdrawMission 0
scalar OsgEarthNet.uav[92] utilizationEnergyOverdrawMaintenance 0
scalar OsgEarthNet.uav[92] utilizationCountMissions 59
scalar OsgEarthNet.uav[92] utilizationCountManeuversMission 826
scalar OsgEarthNet.uav[92] utilizationCountManeuversMaintenance 118
scalar OsgEarthNet.uav[92] utilizationCountChargeState 59
scalar OsgEarthNet.uav[92] utilizationCountOverdrawnAfterMission 0
scalar OsgEarthNet.uav[92] utilizationCountIdleState 24
scalar OsgEarthNet.uav[92] utilizationFail 0
scalar OsgEarthNet.uav[92] simulationTime 259200
scalar OsgEarthNet.uav[93] utilizationSecMission 28910.277265242
scalar OsgEarthNet.uav[93] utilizationSecMaintenance 27483.6737173
scalar OsgEarthNet.uav[93] utilizationSecCharge 195984.04701746
scalar OsgEarthNet.uav[93] utilizationSecIdle 6822.001
scalar OsgEarthNet.uav[93] utilizationEnergyMission 140774.34444046
scalar OsgEarthNet.uav[93] utilizationEnergyMaintenance 127234.92543411
scalar OsgEarthNet.uav[93] utilizationEnergyCharge 264075.8951416
scalar OsgEarthNet.uav[93] utilizationEnergyOverdrawMission 0
scalar OsgEarthNet.uav[93] utilizationEnergyOverdrawMaintenance 0
scalar OsgEarthNet.uav[93] utilizationCountMissions 60
scalar OsgEarthNet.uav[93] utilizationCountManeuversMission 878
scalar OsgEarthNet.uav[93] utilizationCountManeuversMaintenance 120
scalar OsgEarthNet.uav[93] utilizationCountChargeState 60
scalar OsgEarthNet.uav[93] utilizationCountOverdrawnAfterMission 0
scalar OsgEarthNet.uav[93] utilizationCountIdleState 25
scalar OsgEarthNet.uav[93] utilizationFail 0
scalar OsgEarthNet.uav[93] simulationTime 259200
scalar OsgEarthNet.uav[94] utilizationSecMission 31409.478896255
scalar OsgEarthNet.uav[94] utilizationSecMaintenance 25268.515103745
scalar OsgEarthNet.uav[94] utilizationSecCharge 194270
scalar OsgEarthNet.uav[94] utilizationSecIdle 8252.005
scalar OsgEarthNet.uav[94] utilizationEnergyMission 152593.26268005
scalar OsgEarthNet.uav[94] utilizationEnergyMaintenance 116298.3825328
scalar OsgEarthNet.uav[94] utilizationEnergyCharge 262488.31103516
scalar OsgEarthNet.uav[94] utilizationEnergyOverdrawMission 0
scalar OsgEarthNet.uav[94] utilizationEnergyOverdrawMaintenance 0
scalar OsgEarthNet.uav[94] utilizationCountMissions 60
scalar OsgEarthNet.uav[94] utilizationCountManeuversMission 978
scalar OsgEarthNet.uav[94] utilizationCountManeuversMaintenance 120
scalar OsgEarthNet.uav[94] utilizationCountChargeState 59
scalar OsgEarthNet.uav[94] utilizationCountOverdrawnAfterMission 0
scalar OsgEarthNet.uav[94] utilizationCountIdleState 27
scalar OsgEarthNet.uav[94] utilizationFail 0
scalar OsgEarthNet.uav[94] simulationTime 259200
scalar OsgEarthNet.uav[95] utilizationSecMission 27895.182461496
scalar OsgEarthNet.uav[95] utilizationSecMaintenance 28403.43936985
scalar OsgEarthNet.uav[95] utilizationSecCharge 195969.37316865
scalar OsgEarthNet.uav[95] utilizationSecIdle 6932.004
scalar OsgEarthNet.uav[95] utilizationEnergyMission 137380.99964142
scalar OsgEarthNet.uav[95] utilizationEnergyMaintenance 131407.52911377
scalar OsgEarthNet.uav[95] utilizationEnergyCharge 264562.4777832
scalar OsgEarthNet.uav[95] utilizationEnergyOverdrawMission 0
scalar OsgEarthNet.uav[95] utilizationEnergyOverdrawMaintenance 287.48193359375
scalar OsgEarthNet.uav[95] utilizationCountMissions 59
scalar OsgEarthNet.uav[95] utilizationCountManeuversMission 864
scalar OsgEarthNet.uav[95] utilizationCountManeuversMaintenance 118
scalar OsgEarthNet.uav[95] utilizationCountChargeState 59
scalar OsgEarthNet.uav[95] utilizationCountOverdrawnAfterMission 1
scalar OsgEarthNet.uav[95] utilizationCountIdleState 27
scalar OsgEarthNet.uav[95] utilizationFail 0
scalar OsgEarthNet.uav[95] simulationTime 259200
scalar OsgEarthNet.uav[96] utilizationSecMission 28904.627355242
scalar OsgEarthNet.uav[96] utilizationSecMaintenance 27324.855592557
scalar OsgEarthNet.uav[96] utilizationSecCharge 193540
scalar OsgEarthNet.uav[96] utilizationSecIdle 9430.5160522013
scalar OsgEarthNet.uav[96] utilizationEnergyMission 137656.01065877
scalar OsgEarthNet.uav[96] utilizationEnergyMaintenance 125532.163311
scalar OsgEarthNet.uav[96] utilizationEnergyCharge 261727.81689453
scalar OsgEarthNet.uav[96] utilizationEnergyOverdrawMission 0
scalar OsgEarthNet.uav[96] utilizationEnergyOverdrawMaintenance 0
scalar OsgEarthNet.uav[96] utilizationCountMissions 59
scalar OsgEarthNet.uav[96] utilizationCountManeuversMission 844
scalar OsgEarthNet.uav[96] utilizationCountManeuversMaintenance 119
scalar OsgEarthNet.uav[96] utilizationCountChargeState 59
scalar OsgEarthNet.uav[96] utilizationCountOverdrawnAfterMission 0
scalar OsgEarthNet.uav[96] utilizationCountIdleState 20
scalar OsgEarthNet.uav[96] utilizationFail 0
scalar OsgEarthNet.uav[96] simulationTime 259200
scalar OsgEarthNet.uav[97] utilizationSecMission 28926.822114389
scalar OsgEarthNet.uav[97] utilizationSecMaintenance 27025.008949872
scalar OsgEarthNet.uav[97] utilizationSecCharge 194313.97441716
scalar OsgEarthNet.uav[97] utilizationSecIdle 8934.1935185797
scalar OsgEarthNet.uav[97] utilizationEnergyMission 141684.58306885
scalar OsgEarthNet.uav[97] utilizationEnergyMaintenance 124967.08176422
scalar OsgEarthNet.uav[97] utilizationEnergyCharge 263315.54345703
scalar OsgEarthNet.uav[97] utilizationEnergyOverdrawMission 0
scalar OsgEarthNet.uav[97] utilizationEnergyOverdrawMaintenance 0
scalar OsgEarthNet.uav[97] utilizationCountMissions 60
scalar OsgEarthNet.uav[97] utilizationCountManeuversMission 867
scalar OsgEarthNet.uav[97] utilizationCountManeuversMaintenance 120
scalar OsgEarthNet.uav[97] utilizationCountChargeState 60
scalar OsgEarthNet.uav[97] utilizationCountOverdrawnAfterMission 0
scalar OsgEarthNet.uav[97] utilizationCountIdleState 23
scalar OsgEarthNet.uav[97] utilizationFail 0
scalar OsgEarthNet.uav[97] simulationTime 259200
scalar OsgEarthNet.uav[98] utilizationSecMission 31502.637629756
scalar OsgEarthNet.uav[98] utilizationSecMaintenance 24444.433729399
scalar OsgEarthNet.uav[98] utilizationSecCharge 196173.0908268
scalar OsgEarthNet.uav[98] utilizationSecIdle 7079.83681404
scalar OsgEarthNet.uav[98] utilizationEnergyMission 154030.99353027
scalar OsgEarthNet.uav[98] utilizationEnergyMaintenance 113580.9581337
scalar OsgEarthNet.uav[98] utilizationEnergyCharge 263201.77746582
scalar OsgEarthNet.uav[98] utilizationEnergyOverdrawMission 0
scalar OsgEarthNet.uav[98] utilizationEnergyOverdrawMaintenance 0
scalar OsgEarthNet.uav[98] utilizationCountMissions 60
scalar OsgEarthNet.uav[98] utilizationCountManeuversMission 1023
scalar OsgEarthNet.uav[98] utilizationCountManeuversMaintenance 120
scalar OsgEarthNet.uav[98] utilizationCountChargeState 60
scalar OsgEarthNet.uav[98] utilizationCountOverdrawnAfterMission 0
scalar OsgEarthNet.uav[98] utilizationCountIdleState 24
scalar OsgEarthNet.uav[98] utilizationFail 0
scalar OsgEarthNet.uav[98] simulationTime 259200
scalar OsgEarthNet.uav[99] utilizationSecMission 29517.907945394
scalar OsgEarthNet.uav[99] utilizationSecMaintenance 26344.645684874
scalar OsgEarthNet.uav[99] utilizationSecCharge 195435.43736973
scalar OsgEarthNet.uav[99] utilizationSecIdle 7902.008
scalar OsgEarthNet.uav[99] utilizationEnergyMission 143358.88664246
scalar OsgEarthNet.uav[99] utilizationEnergyMaintenance 122177.64450455
scalar OsgEarthNet.uav[99] utilizationEnergyCharge 262723.04309082
scalar OsgEarthNet.uav[99] utilizationEnergyOverdrawMission 0
scalar OsgEarthNet.uav[99] utilizationEnergyOverdrawMaintenance 0
scalar OsgEarthNet.uav[99] utilizationCountMissions 60
scalar OsgEarthNet.uav[99] utilizationCountManeuversMission 892
scalar OsgEarthNet.uav[99] utilizationCountManeuversMaintenance 120
scalar OsgEarthNet.uav[99] utilizationCountChargeState 60
scalar OsgEarthNet.uav[99] utilizationCountOverdrawnAfterMission 0
scalar OsgEarthNet.uav[99] utilizationCountIdleState 25
scalar OsgEarthNet.uav[99] utilizationFail 0
scalar OsgEarthNet.uav[99] simulationTime 259200
scalar OsgEarthNet.cs[0] usedPower 5307693.1823148
scalar OsgEarthNet.cs[0] chargedPower 5307693.1823148
scalar OsgEarthNet.cs[0] chargedMobileNodes 934
scalar OsgEarthNet.cs[0] reservations 1214
scalar OsgEarthNet.cs[1] usedPower 5656124.7465719
scalar OsgEarthNet.cs[1] chargedPower 5656124.7465719
scalar OsgEarthNet.cs[1] chargedMobileNodes 934
scalar OsgEarthNet.cs[1] reservations 1254
scalar OsgEarthNet.cs[2] usedPower 9653310.0224783
scalar OsgEarthNet.cs[2] chargedPower 9653310.0224783
scalar OsgEarthNet.cs[2] chargedMobileNodes 1745
scalar OsgEarthNet.cs[2] reservations 2193

