version 2
run Szenario_Hotel_Gabelbach-81-20180708-00:28:47-19896
attr configname Szenario_Hotel_Gabelbach
attr datetime 20180708-00:28:47
attr experiment Szenario_Hotel_Gabelbach
attr inifile omnetpp.ini
attr iterationvars "$quant=0.975, $replM=0"
attr iterationvarsf quant=0.975,replM=0-
attr measurement "$quant=0.975, $replM=0"
attr network OsgEarthNet
attr processid 19896
attr repetition 9
attr replication #9
attr resultdir results
attr runnumber 81
attr seedset 81
itervar quant 0.975
itervar replM 0
param *.osgEarthScene.scene "\"Szenario_Hotel_Gabelbach.earth\""
param *.playgroundLatitude 50.6830269
param *.playgroundLongitude 10.8538055
param *.playgroundWidth 3500m
param *.playgroundHeight 3500m
param *.numCSs 3
param *.numUAVs 100
param *.cs[0].posX 3537m
param *.cs[0].posY 965m
param *.cs[0].posZ 538m
param *.cs[1].posX 312m
param *.cs[1].posY 1262m
param *.cs[1].posZ 539m
param *.cs[2].posX 2185m
param *.cs[2].posY 3026m
param *.cs[2].posZ 777m
param *.uav[*].predictionQuantile 0.975
param *.uav[*].replacementMethod 0
param *.*.timeStep 10s
param *.uav[*].commandPreviewCommandCount 20
param *.missionControl.missionFiles "\"missions\\\\Szenario_WB_Hotel_Gabelbach_Mission_Hotel.waypoints,missions\\\\Szenario_WB_Hotel_Gabelbach_Mission_Kickelhahn.waypoints,missions\\\\Szenario_WB_Hotel_Gabelbach_Mission_Ilmenau_Sportplatz.waypoints,missions\\\\Szenario_WB_Hotel_Gabelbach_Mission_Manebach_Mitte.waypoints,missions\\\\Szenario_WB_Hotel_Gabelbach_Mission_Manebach_Sued.waypoints,missions\\\\Szenario_WB_Hotel_Gabelbach_Hover_HoheSchlaufe.waypoints,missions\\\\Szenario_WB_Hotel_Gabelbach_Hover_Kickelhahn.waypoints,missions\\\\Szenario_WB_Hotel_Gabelbach_Hover_Gabelbachskopf.waypoints,missions\\\\Szenario_WB_Hotel_Gabelbach_Hover_Dachskopf.waypoints\""
param *.uav[0].startX 3537m
param *.uav[0].startY 965m
param *.uav[0].startZ 539m
param *.uav[1].startX 312m
param *.uav[1].startY 1262m
param *.uav[1].startZ 540m
param *.uav[2].startX 2185m
param *.uav[2].startY 3026m
param *.uav[2].startZ 778m
param *.uav[3].startX 3537m
param *.uav[3].startY 965m
param *.uav[3].startZ 539m
param *.uav[4].startX 312m
param *.uav[4].startY 1262m
param *.uav[4].startZ 540m
param *.uav[5].startX 2185m
param *.uav[5].startY 3026m
param *.uav[5].startZ 778m
param *.uav[6].startX 3537m
param *.uav[6].startY 965m
param *.uav[6].startZ 539m
param *.uav[7].startX 312m
param *.uav[7].startY 1262m
param *.uav[7].startZ 540m
param *.uav[8].startX 2185m
param *.uav[8].startY 3026m
param *.uav[8].startZ 778m
param *.uav[9].startX 3537m
param *.uav[9].startY 965m
param *.uav[9].startZ 539m
param *.uav[10].startX 3537m
param *.uav[10].startY 965m
param *.uav[10].startZ 539m
param *.uav[11].startX 312m
param *.uav[11].startY 1262m
param *.uav[11].startZ 540m
param *.uav[12].startX 2185m
param *.uav[12].startY 3026m
param *.uav[12].startZ 778m
param *.uav[13].startX 3537m
param *.uav[13].startY 965m
param *.uav[13].startZ 539m
param *.uav[14].startX 312m
param *.uav[14].startY 1262m
param *.uav[14].startZ 540m
param *.uav[15].startX 2185m
param *.uav[15].startY 3026m
param *.uav[15].startZ 778m
param *.uav[16].startX 3537m
param *.uav[16].startY 965m
param *.uav[16].startZ 539m
param *.uav[17].startX 312m
param *.uav[17].startY 1262m
param *.uav[17].startZ 540m
param *.uav[18].startX 2185m
param *.uav[18].startY 3026m
param *.uav[18].startZ 778m
param *.uav[19].startX 3537m
param *.uav[19].startY 965m
param *.uav[19].startZ 539m
param *.uav[20].startX 3537m
param *.uav[20].startY 965m
param *.uav[20].startZ 539m
param *.uav[21].startX 312m
param *.uav[21].startY 1262m
param *.uav[21].startZ 540m
param *.uav[22].startX 2185m
param *.uav[22].startY 3026m
param *.uav[22].startZ 778m
param *.uav[23].startX 3537m
param *.uav[23].startY 965m
param *.uav[23].startZ 539m
param *.uav[24].startX 312m
param *.uav[24].startY 1262m
param *.uav[24].startZ 540m
param *.uav[25].startX 2185m
param *.uav[25].startY 3026m
param *.uav[25].startZ 778m
param *.uav[26].startX 3537m
param *.uav[26].startY 965m
param *.uav[26].startZ 539m
param *.uav[27].startX 312m
param *.uav[27].startY 1262m
param *.uav[27].startZ 540m
param *.uav[28].startX 2185m
param *.uav[28].startY 3026m
param *.uav[28].startZ 778m
param *.uav[29].startX 3537m
param *.uav[29].startY 965m
param *.uav[29].startZ 539m
param *.uav[30].startX 3537m
param *.uav[30].startY 965m
param *.uav[30].startZ 539m
param *.uav[31].startX 312m
param *.uav[31].startY 1262m
param *.uav[31].startZ 540m
param *.uav[32].startX 2185m
param *.uav[32].startY 3026m
param *.uav[32].startZ 778m
param *.uav[33].startX 3537m
param *.uav[33].startY 965m
param *.uav[33].startZ 539m
param *.uav[34].startX 312m
param *.uav[34].startY 1262m
param *.uav[34].startZ 540m
param *.uav[35].startX 2185m
param *.uav[35].startY 3026m
param *.uav[35].startZ 778m
param *.uav[36].startX 3537m
param *.uav[36].startY 965m
param *.uav[36].startZ 539m
param *.uav[37].startX 312m
param *.uav[37].startY 1262m
param *.uav[37].startZ 540m
param *.uav[38].startX 2185m
param *.uav[38].startY 3026m
param *.uav[38].startZ 778m
param *.uav[39].startX 3537m
param *.uav[39].startY 965m
param *.uav[39].startZ 539m
param *.uav[40].startX 3537m
param *.uav[40].startY 965m
param *.uav[40].startZ 539m
param *.uav[41].startX 312m
param *.uav[41].startY 1262m
param *.uav[41].startZ 540m
param *.uav[42].startX 2185m
param *.uav[42].startY 3026m
param *.uav[42].startZ 778m
param *.uav[43].startX 3537m
param *.uav[43].startY 965m
param *.uav[43].startZ 539m
param *.uav[44].startX 312m
param *.uav[44].startY 1262m
param *.uav[44].startZ 540m
param *.uav[45].startX 2185m
param *.uav[45].startY 3026m
param *.uav[45].startZ 778m
param *.uav[46].startX 3537m
param *.uav[46].startY 965m
param *.uav[46].startZ 539m
param *.uav[47].startX 312m
param *.uav[47].startY 1262m
param *.uav[47].startZ 540m
param *.uav[48].startX 2185m
param *.uav[48].startY 3026m
param *.uav[48].startZ 778m
param *.uav[49].startX 3537m
param *.uav[49].startY 965m
param *.uav[49].startZ 539m
param *.uav[50].startX 3537m
param *.uav[50].startY 965m
param *.uav[50].startZ 539m
param *.uav[51].startX 312m
param *.uav[51].startY 1262m
param *.uav[51].startZ 540m
param *.uav[52].startX 2185m
param *.uav[52].startY 3026m
param *.uav[52].startZ 778m
param *.uav[53].startX 3537m
param *.uav[53].startY 965m
param *.uav[53].startZ 539m
param *.uav[54].startX 312m
param *.uav[54].startY 1262m
param *.uav[54].startZ 540m
param *.uav[55].startX 2185m
param *.uav[55].startY 3026m
param *.uav[55].startZ 778m
param *.uav[56].startX 3537m
param *.uav[56].startY 965m
param *.uav[56].startZ 539m
param *.uav[57].startX 312m
param *.uav[57].startY 1262m
param *.uav[57].startZ 540m
param *.uav[58].startX 2185m
param *.uav[58].startY 3026m
param *.uav[58].startZ 778m
param *.uav[59].startX 3537m
param *.uav[59].startY 965m
param *.uav[59].startZ 539m
param *.uav[60].startX 3537m
param *.uav[60].startY 965m
param *.uav[60].startZ 539m
param *.uav[61].startX 312m
param *.uav[61].startY 1262m
param *.uav[61].startZ 540m
param *.uav[62].startX 2185m
param *.uav[62].startY 3026m
param *.uav[62].startZ 778m
param *.uav[63].startX 3537m
param *.uav[63].startY 965m
param *.uav[63].startZ 539m
param *.uav[64].startX 312m
param *.uav[64].startY 1262m
param *.uav[64].startZ 540m
param *.uav[65].startX 2185m
param *.uav[65].startY 3026m
param *.uav[65].startZ 778m
param *.uav[66].startX 3537m
param *.uav[66].startY 965m
param *.uav[66].startZ 539m
param *.uav[67].startX 312m
param *.uav[67].startY 1262m
param *.uav[67].startZ 540m
param *.uav[68].startX 2185m
param *.uav[68].startY 3026m
param *.uav[68].startZ 778m
param *.uav[69].startX 3537m
param *.uav[69].startY 965m
param *.uav[69].startZ 539m
param *.uav[70].startX 3537m
param *.uav[70].startY 965m
param *.uav[70].startZ 539m
param *.uav[71].startX 312m
param *.uav[71].startY 1262m
param *.uav[71].startZ 540m
param *.uav[72].startX 2185m
param *.uav[72].startY 3026m
param *.uav[72].startZ 778m
param *.uav[73].startX 3537m
param *.uav[73].startY 965m
param *.uav[73].startZ 539m
param *.uav[74].startX 312m
param *.uav[74].startY 1262m
param *.uav[74].startZ 540m
param *.uav[75].startX 2185m
param *.uav[75].startY 3026m
param *.uav[75].startZ 778m
param *.uav[76].startX 3537m
param *.uav[76].startY 965m
param *.uav[76].startZ 539m
param *.uav[77].startX 312m
param *.uav[77].startY 1262m
param *.uav[77].startZ 540m
param *.uav[78].startX 2185m
param *.uav[78].startY 3026m
param *.uav[78].startZ 778m
param *.uav[79].startX 3537m
param *.uav[79].startY 965m
param *.uav[79].startZ 539m
param *.uav[80].startX 3537m
param *.uav[80].startY 965m
param *.uav[80].startZ 539m
param *.uav[81].startX 312m
param *.uav[81].startY 1262m
param *.uav[81].startZ 540m
param *.uav[82].startX 2185m
param *.uav[82].startY 3026m
param *.uav[82].startZ 778m
param *.uav[83].startX 3537m
param *.uav[83].startY 965m
param *.uav[83].startZ 539m
param *.uav[84].startX 312m
param *.uav[84].startY 1262m
param *.uav[84].startZ 540m
param *.uav[85].startX 2185m
param *.uav[85].startY 3026m
param *.uav[85].startZ 778m
param *.uav[86].startX 3537m
param *.uav[86].startY 965m
param *.uav[86].startZ 539m
param *.uav[87].startX 312m
param *.uav[87].startY 1262m
param *.uav[87].startZ 540m
param *.uav[88].startX 2185m
param *.uav[88].startY 3026m
param *.uav[88].startZ 778m
param *.uav[89].startX 3537m
param *.uav[89].startY 965m
param *.uav[89].startZ 539m
param *.uav[90].startX 3537m
param *.uav[90].startY 965m
param *.uav[90].startZ 539m
param *.uav[91].startX 312m
param *.uav[91].startY 1262m
param *.uav[91].startZ 540m
param *.uav[92].startX 2185m
param *.uav[92].startY 3026m
param *.uav[92].startZ 778m
param *.uav[93].startX 3537m
param *.uav[93].startY 965m
param *.uav[93].startZ 539m
param *.uav[94].startX 312m
param *.uav[94].startY 1262m
param *.uav[94].startZ 540m
param *.uav[95].startX 2185m
param *.uav[95].startY 3026m
param *.uav[95].startZ 778m
param *.uav[96].startX 3537m
param *.uav[96].startY 965m
param *.uav[96].startZ 539m
param *.uav[97].startX 312m
param *.uav[97].startY 1262m
param *.uav[97].startZ 540m
param *.uav[98].startX 2185m
param *.uav[98].startY 3026m
param *.uav[98].startZ 778m
param *.uav[99].startX 3537m
param *.uav[99].startY 965m
param *.uav[99].startZ 539m
param *.osgEarthScene.scene "\"boston.earth\""
param *.playgroundLatitude 42.3558
param *.playgroundLongitude -71.0677
param *.playgroundWidth 400m
param *.playgroundHeight 200m
param *.channelController.connectionColor "\"#0000FF40\""
param *.channelController.showConnections false
param *.uav[*].modelURL "\"quadrocopter.small.obj.15.scale.0,0,90.rot\""
param *.uav[*].labelColor "\"#FF7C00CC\""
param *.uav[*].label2Color "\"#FF7C00EE\""
param *.uav[*].batteryCapacity 5200mAh
param *.uav[*].batteryRemaining uav[index].batteryCapacity
param *.uav[*].predictionQuantile 0.95
param *.uav[*].replacementMethod 2
param *.uav[*].weightedSumWeight 0.5
param *.cs[*].modelURL "\"chargingstation_v1.osgt.1.scale.0,0,0.rot.0,0,-15e-1.trans\""
param *.cs[*].spotsWaiting 999
param *.cs[*].spotsCharging 999
param *.cs[*].chargeEffectivenessPercentage 100
param *.cs[*].nonLinearPhaseStartPercentage 85
param *.cs[*].chargeCurrent 6.0A
param *.cs[*].prioritizeFastCharge true
param *.missionControl.replacementSearchMethod 0
param *.*.timeStep 9s

scalar OsgEarthNet.uav[0] utilizationSecMission 20036.953616292
scalar OsgEarthNet.uav[0] utilizationSecMaintenance 24182.474963842
scalar OsgEarthNet.uav[0] utilizationSecCharge 161460
scalar OsgEarthNet.uav[0] utilizationSecIdle 53520.570419866
scalar OsgEarthNet.uav[0] utilizationEnergyMission 97648.711978912
scalar OsgEarthNet.uav[0] utilizationEnergyMaintenance 113124.50218701
scalar OsgEarthNet.uav[0] utilizationEnergyCharge 210194.54199219
scalar OsgEarthNet.uav[0] utilizationEnergyOverdrawMission 0
scalar OsgEarthNet.uav[0] utilizationEnergyOverdrawMaintenance 0
scalar OsgEarthNet.uav[0] utilizationCountMissions 49
scalar OsgEarthNet.uav[0] utilizationCountManeuversMission 664
scalar OsgEarthNet.uav[0] utilizationCountManeuversMaintenance 99
scalar OsgEarthNet.uav[0] utilizationCountChargeState 49
scalar OsgEarthNet.uav[0] utilizationCountOverdrawnAfterMission 0
scalar OsgEarthNet.uav[0] utilizationCountIdleState 50
scalar OsgEarthNet.uav[0] utilizationFail 0
scalar OsgEarthNet.uav[0] simulationTime 259200
scalar OsgEarthNet.uav[1] utilizationSecMission 27085.325516846
scalar OsgEarthNet.uav[1] utilizationSecMaintenance 24390.245743885
scalar OsgEarthNet.uav[1] utilizationSecCharge 185195.90107719
scalar OsgEarthNet.uav[1] utilizationSecIdle 22528.526662077
scalar OsgEarthNet.uav[1] utilizationEnergyMission 130376.72467422
scalar OsgEarthNet.uav[1] utilizationEnergyMaintenance 114445.74721909
scalar OsgEarthNet.uav[1] utilizationEnergyCharge 242815.44799805
scalar OsgEarthNet.uav[1] utilizationEnergyOverdrawMission 0
scalar OsgEarthNet.uav[1] utilizationEnergyOverdrawMaintenance 0
scalar OsgEarthNet.uav[1] utilizationCountMissions 56
scalar OsgEarthNet.uav[1] utilizationCountManeuversMission 858
scalar OsgEarthNet.uav[1] utilizationCountManeuversMaintenance 112
scalar OsgEarthNet.uav[1] utilizationCountChargeState 56
scalar OsgEarthNet.uav[1] utilizationCountOverdrawnAfterMission 0
scalar OsgEarthNet.uav[1] utilizationCountIdleState 56
scalar OsgEarthNet.uav[1] utilizationFail 0
scalar OsgEarthNet.uav[1] simulationTime 259200
scalar OsgEarthNet.uav[2] utilizationSecMission 27825.668081541
scalar OsgEarthNet.uav[2] utilizationSecMaintenance 22003.011415555
scalar OsgEarthNet.uav[2] utilizationSecCharge 177862.09988899
scalar OsgEarthNet.uav[2] utilizationSecIdle 31509.219613916
scalar OsgEarthNet.uav[2] utilizationEnergyMission 133245.49281311
scalar OsgEarthNet.uav[2] utilizationEnergyMaintenance 101836.79186249
scalar OsgEarthNet.uav[2] utilizationEnergyCharge 232979.14233398
scalar OsgEarthNet.uav[2] utilizationEnergyOverdrawMission 0
scalar OsgEarthNet.uav[2] utilizationEnergyOverdrawMaintenance 0
scalar OsgEarthNet.uav[2] utilizationCountMissions 54
scalar OsgEarthNet.uav[2] utilizationCountManeuversMission 835
scalar OsgEarthNet.uav[2] utilizationCountManeuversMaintenance 108
scalar OsgEarthNet.uav[2] utilizationCountChargeState 54
scalar OsgEarthNet.uav[2] utilizationCountOverdrawnAfterMission 0
scalar OsgEarthNet.uav[2] utilizationCountIdleState 54
scalar OsgEarthNet.uav[2] utilizationFail 0
scalar OsgEarthNet.uav[2] simulationTime 259200
scalar OsgEarthNet.uav[3] utilizationSecMission 24382.267961818
scalar OsgEarthNet.uav[3] utilizationSecMaintenance 21905.724038182
scalar OsgEarthNet.uav[3] utilizationSecCharge 164140
scalar OsgEarthNet.uav[3] utilizationSecIdle 48772.007
scalar OsgEarthNet.uav[3] utilizationEnergyMission 117690.01634644
scalar OsgEarthNet.uav[3] utilizationEnergyMaintenance 101326.40670395
scalar OsgEarthNet.uav[3] utilizationEnergyCharge 214824.4753418
scalar OsgEarthNet.uav[3] utilizationEnergyOverdrawMission 0
scalar OsgEarthNet.uav[3] utilizationEnergyOverdrawMaintenance 0
scalar OsgEarthNet.uav[3] utilizationCountMissions 49
scalar OsgEarthNet.uav[3] utilizationCountManeuversMission 685
scalar OsgEarthNet.uav[3] utilizationCountManeuversMaintenance 99
scalar OsgEarthNet.uav[3] utilizationCountChargeState 49
scalar OsgEarthNet.uav[3] utilizationCountOverdrawnAfterMission 0
scalar OsgEarthNet.uav[3] utilizationCountIdleState 50
scalar OsgEarthNet.uav[3] utilizationFail 0
scalar OsgEarthNet.uav[3] simulationTime 259200
scalar OsgEarthNet.uav[4] utilizationSecMission 7056.8101659945
scalar OsgEarthNet.uav[4] utilizationSecMaintenance 5531.3059589103
scalar OsgEarthNet.uav[4] utilizationSecCharge 46490
scalar OsgEarthNet.uav[4] utilizationSecIdle 200121.8828751
scalar OsgEarthNet.uav[4] utilizationEnergyMission 34107.927696228
scalar OsgEarthNet.uav[4] utilizationEnergyMaintenance 25691.750049591
scalar OsgEarthNet.uav[4] utilizationEnergyCharge 60216.4609375
scalar OsgEarthNet.uav[4] utilizationEnergyOverdrawMission 0
scalar OsgEarthNet.uav[4] utilizationEnergyOverdrawMaintenance 0
scalar OsgEarthNet.uav[4] utilizationCountMissions 14
scalar OsgEarthNet.uav[4] utilizationCountManeuversMission 193
scalar OsgEarthNet.uav[4] utilizationCountManeuversMaintenance 28
scalar OsgEarthNet.uav[4] utilizationCountChargeState 14
scalar OsgEarthNet.uav[4] utilizationCountOverdrawnAfterMission 0
scalar OsgEarthNet.uav[4] utilizationCountIdleState 15
scalar OsgEarthNet.uav[4] utilizationFail 0
scalar OsgEarthNet.uav[4] simulationTime 259200
scalar OsgEarthNet.uav[5] utilizationSecMission 27009.822343222
scalar OsgEarthNet.uav[5] utilizationSecMaintenance 17308.503607395
scalar OsgEarthNet.uav[5] utilizationSecCharge 158580
scalar OsgEarthNet.uav[5] utilizationSecIdle 56301.673049383
scalar OsgEarthNet.uav[5] utilizationEnergyMission 129965.22644274
scalar OsgEarthNet.uav[5] utilizationEnergyMaintenance 79994.634624481
scalar OsgEarthNet.uav[5] utilizationEnergyCharge 207958.61523438
scalar OsgEarthNet.uav[5] utilizationEnergyOverdrawMission 0
scalar OsgEarthNet.uav[5] utilizationEnergyOverdrawMaintenance 0
scalar OsgEarthNet.uav[5] utilizationCountMissions 47
scalar OsgEarthNet.uav[5] utilizationCountManeuversMission 771
scalar OsgEarthNet.uav[5] utilizationCountManeuversMaintenance 95
scalar OsgEarthNet.uav[5] utilizationCountChargeState 47
scalar OsgEarthNet.uav[5] utilizationCountOverdrawnAfterMission 0
scalar OsgEarthNet.uav[5] utilizationCountIdleState 48
scalar OsgEarthNet.uav[5] utilizationFail 0
scalar OsgEarthNet.uav[5] simulationTime 259200
scalar OsgEarthNet.uav[6] utilizationSecMission 24823.979259679
scalar OsgEarthNet.uav[6] utilizationSecMaintenance 24643.209456349
scalar OsgEarthNet.uav[6] utilizationSecCharge 177200.80628397
scalar OsgEarthNet.uav[6] utilizationSecIdle 32532.004
scalar OsgEarthNet.uav[6] utilizationEnergyMission 121355.39125824
scalar OsgEarthNet.uav[6] utilizationEnergyMaintenance 114430.23806381
scalar OsgEarthNet.uav[6] utilizationEnergyCharge 231793.90765381
scalar OsgEarthNet.uav[6] utilizationEnergyOverdrawMission 0
scalar OsgEarthNet.uav[6] utilizationEnergyOverdrawMaintenance 0
scalar OsgEarthNet.uav[6] utilizationCountMissions 54
scalar OsgEarthNet.uav[6] utilizationCountManeuversMission 841
scalar OsgEarthNet.uav[6] utilizationCountManeuversMaintenance 108
scalar OsgEarthNet.uav[6] utilizationCountChargeState 54
scalar OsgEarthNet.uav[6] utilizationCountOverdrawnAfterMission 0
scalar OsgEarthNet.uav[6] utilizationCountIdleState 54
scalar OsgEarthNet.uav[6] utilizationFail 0
scalar OsgEarthNet.uav[6] simulationTime 259200
scalar OsgEarthNet.uav[7] utilizationSecMission 26600.213934974
scalar OsgEarthNet.uav[7] utilizationSecMaintenance 23759.134054071
scalar OsgEarthNet.uav[7] utilizationSecCharge 183060
scalar OsgEarthNet.uav[7] utilizationSecIdle 25780.651010955
scalar OsgEarthNet.uav[7] utilizationEnergyMission 128518.1486969
scalar OsgEarthNet.uav[7] utilizationEnergyMaintenance 110682.09174347
scalar OsgEarthNet.uav[7] utilizationEnergyCharge 239041.71362305
scalar OsgEarthNet.uav[7] utilizationEnergyOverdrawMission 0
scalar OsgEarthNet.uav[7] utilizationEnergyOverdrawMaintenance 0
scalar OsgEarthNet.uav[7] utilizationCountMissions 55
scalar OsgEarthNet.uav[7] utilizationCountManeuversMission 781
scalar OsgEarthNet.uav[7] utilizationCountManeuversMaintenance 110
scalar OsgEarthNet.uav[7] utilizationCountChargeState 55
scalar OsgEarthNet.uav[7] utilizationCountOverdrawnAfterMission 0
scalar OsgEarthNet.uav[7] utilizationCountIdleState 56
scalar OsgEarthNet.uav[7] utilizationFail 0
scalar OsgEarthNet.uav[7] simulationTime 259200
scalar OsgEarthNet.uav[8] utilizationSecMission 28102.209992113
scalar OsgEarthNet.uav[8] utilizationSecMaintenance 21467.777398376
scalar OsgEarthNet.uav[8] utilizationSecCharge 178868.01160951
scalar OsgEarthNet.uav[8] utilizationSecIdle 30762
scalar OsgEarthNet.uav[8] utilizationEnergyMission 136459.36573344
scalar OsgEarthNet.uav[8] utilizationEnergyMaintenance 100210.65093613
scalar OsgEarthNet.uav[8] utilizationEnergyCharge 234604.88574219
scalar OsgEarthNet.uav[8] utilizationEnergyOverdrawMission 0
scalar OsgEarthNet.uav[8] utilizationEnergyOverdrawMaintenance 0
scalar OsgEarthNet.uav[8] utilizationCountMissions 54
scalar OsgEarthNet.uav[8] utilizationCountManeuversMission 820
scalar OsgEarthNet.uav[8] utilizationCountManeuversMaintenance 107
scalar OsgEarthNet.uav[8] utilizationCountChargeState 54
scalar OsgEarthNet.uav[8] utilizationCountOverdrawnAfterMission 0
scalar OsgEarthNet.uav[8] utilizationCountIdleState 54
scalar OsgEarthNet.uav[8] utilizationFail 0
scalar OsgEarthNet.uav[8] simulationTime 259200
scalar OsgEarthNet.uav[9] utilizationSecMission 26174.514257722
scalar OsgEarthNet.uav[9] utilizationSecMaintenance 24816.604503216
scalar OsgEarthNet.uav[9] utilizationSecCharge 184166.87923906
scalar OsgEarthNet.uav[9] utilizationSecIdle 24042.001
scalar OsgEarthNet.uav[9] utilizationEnergyMission 127204.76388168
scalar OsgEarthNet.uav[9] utilizationEnergyMaintenance 114531.74189758
scalar OsgEarthNet.uav[9] utilizationEnergyCharge 240547.48425293
scalar OsgEarthNet.uav[9] utilizationEnergyOverdrawMission 0
scalar OsgEarthNet.uav[9] utilizationEnergyOverdrawMaintenance 0
scalar OsgEarthNet.uav[9] utilizationCountMissions 56
scalar OsgEarthNet.uav[9] utilizationCountManeuversMission 866
scalar OsgEarthNet.uav[9] utilizationCountManeuversMaintenance 112
scalar OsgEarthNet.uav[9] utilizationCountChargeState 56
scalar OsgEarthNet.uav[9] utilizationCountOverdrawnAfterMission 0
scalar OsgEarthNet.uav[9] utilizationCountIdleState 56
scalar OsgEarthNet.uav[9] utilizationFail 0
scalar OsgEarthNet.uav[9] simulationTime 259200
scalar OsgEarthNet.uav[10] utilizationSecMission 25659.951325055
scalar OsgEarthNet.uav[10] utilizationSecMaintenance 21769.27950914
scalar OsgEarthNet.uav[10] utilizationSecCharge 170448.76216581
scalar OsgEarthNet.uav[10] utilizationSecIdle 41322.006
scalar OsgEarthNet.uav[10] utilizationEnergyMission 126310.84581757
scalar OsgEarthNet.uav[10] utilizationEnergyMaintenance 100973.22352982
scalar OsgEarthNet.uav[10] utilizationEnergyCharge 223020.40844727
scalar OsgEarthNet.uav[10] utilizationEnergyOverdrawMission 0
scalar OsgEarthNet.uav[10] utilizationEnergyOverdrawMaintenance 0
scalar OsgEarthNet.uav[10] utilizationCountMissions 52
scalar OsgEarthNet.uav[10] utilizationCountManeuversMission 832
scalar OsgEarthNet.uav[10] utilizationCountManeuversMaintenance 104
scalar OsgEarthNet.uav[10] utilizationCountChargeState 52
scalar OsgEarthNet.uav[10] utilizationCountOverdrawnAfterMission 0
scalar OsgEarthNet.uav[10] utilizationCountIdleState 52
scalar OsgEarthNet.uav[10] utilizationFail 0
scalar OsgEarthNet.uav[10] simulationTime 259200
scalar OsgEarthNet.uav[11] utilizationSecMission 21684.695154055
scalar OsgEarthNet.uav[11] utilizationSecMaintenance 20283.294845945
scalar OsgEarthNet.uav[11] utilizationSecCharge 148910
scalar OsgEarthNet.uav[11] utilizationSecIdle 68322.009
scalar OsgEarthNet.uav[11] utilizationEnergyMission 105401.46442795
scalar OsgEarthNet.uav[11] utilizationEnergyMaintenance 94806.836746778
scalar OsgEarthNet.uav[11] utilizationEnergyCharge 194004.16113281
scalar OsgEarthNet.uav[11] utilizationEnergyOverdrawMission 0
scalar OsgEarthNet.uav[11] utilizationEnergyOverdrawMaintenance 0
scalar OsgEarthNet.uav[11] utilizationCountMissions 46
scalar OsgEarthNet.uav[11] utilizationCountManeuversMission 676
scalar OsgEarthNet.uav[11] utilizationCountManeuversMaintenance 92
scalar OsgEarthNet.uav[11] utilizationCountChargeState 45
scalar OsgEarthNet.uav[11] utilizationCountOverdrawnAfterMission 0
scalar OsgEarthNet.uav[11] utilizationCountIdleState 46
scalar OsgEarthNet.uav[11] utilizationFail 0
scalar OsgEarthNet.uav[11] simulationTime 259200
scalar OsgEarthNet.uav[12] utilizationSecMission 11484.491852932
scalar OsgEarthNet.uav[12] utilizationSecMaintenance 11393.174498555
scalar OsgEarthNet.uav[12] utilizationSecCharge 83536.309393016
scalar OsgEarthNet.uav[12] utilizationSecIdle 152786.0232555
scalar OsgEarthNet.uav[12] utilizationEnergyMission 56199.023460388
scalar OsgEarthNet.uav[12] utilizationEnergyMaintenance 52201.040718079
scalar OsgEarthNet.uav[12] utilizationEnergyCharge 108855.34350586
scalar OsgEarthNet.uav[12] utilizationEnergyOverdrawMission 0
scalar OsgEarthNet.uav[12] utilizationEnergyOverdrawMaintenance 0
scalar OsgEarthNet.uav[12] utilizationCountMissions 25
scalar OsgEarthNet.uav[12] utilizationCountManeuversMission 375
scalar OsgEarthNet.uav[12] utilizationCountManeuversMaintenance 50
scalar OsgEarthNet.uav[12] utilizationCountChargeState 25
scalar OsgEarthNet.uav[12] utilizationCountOverdrawnAfterMission 0
scalar OsgEarthNet.uav[12] utilizationCountIdleState 25
scalar OsgEarthNet.uav[12] utilizationFail 0
scalar OsgEarthNet.uav[12] simulationTime 259200
scalar OsgEarthNet.uav[13] utilizationSecMission 26556.26665859
scalar OsgEarthNet.uav[13] utilizationSecMaintenance 25261.872040677
scalar OsgEarthNet.uav[13] utilizationSecCharge 186329.86030073
scalar OsgEarthNet.uav[13] utilizationSecIdle 21052
scalar OsgEarthNet.uav[13] utilizationEnergyMission 130549.57824326
scalar OsgEarthNet.uav[13] utilizationEnergyMaintenance 116397.7008667
scalar OsgEarthNet.uav[13] utilizationEnergyCharge 243096.19299316
scalar OsgEarthNet.uav[13] utilizationEnergyOverdrawMission 0
scalar OsgEarthNet.uav[13] utilizationEnergyOverdrawMaintenance 0
scalar OsgEarthNet.uav[13] utilizationCountMissions 57
scalar OsgEarthNet.uav[13] utilizationCountManeuversMission 920
scalar OsgEarthNet.uav[13] utilizationCountManeuversMaintenance 114
scalar OsgEarthNet.uav[13] utilizationCountChargeState 57
scalar OsgEarthNet.uav[13] utilizationCountOverdrawnAfterMission 0
scalar OsgEarthNet.uav[13] utilizationCountIdleState 57
scalar OsgEarthNet.uav[13] utilizationFail 0
scalar OsgEarthNet.uav[13] simulationTime 259200
scalar OsgEarthNet.uav[14] utilizationSecMission 24424.568799092
scalar OsgEarthNet.uav[14] utilizationSecMaintenance 22826.937028434
scalar OsgEarthNet.uav[14] utilizationSecCharge 170706.16309143
scalar OsgEarthNet.uav[14] utilizationSecIdle 41242.330081043
scalar OsgEarthNet.uav[14] utilizationEnergyMission 117380.76340485
scalar OsgEarthNet.uav[14] utilizationEnergyMaintenance 105980.47022247
scalar OsgEarthNet.uav[14] utilizationEnergyCharge 223522.38964844
scalar OsgEarthNet.uav[14] utilizationEnergyOverdrawMission 0
scalar OsgEarthNet.uav[14] utilizationEnergyOverdrawMaintenance 0
scalar OsgEarthNet.uav[14] utilizationCountMissions 51
scalar OsgEarthNet.uav[14] utilizationCountManeuversMission 661
scalar OsgEarthNet.uav[14] utilizationCountManeuversMaintenance 102
scalar OsgEarthNet.uav[14] utilizationCountChargeState 51
scalar OsgEarthNet.uav[14] utilizationCountOverdrawnAfterMission 0
scalar OsgEarthNet.uav[14] utilizationCountIdleState 51
scalar OsgEarthNet.uav[14] utilizationFail 0
scalar OsgEarthNet.uav[14] simulationTime 259200
scalar OsgEarthNet.uav[15] utilizationSecMission 24131.765340512
scalar OsgEarthNet.uav[15] utilizationSecMaintenance 24024.125058649
scalar OsgEarthNet.uav[15] utilizationSecCharge 173084.68325355
scalar OsgEarthNet.uav[15] utilizationSecIdle 37959.42534729
scalar OsgEarthNet.uav[15] utilizationEnergyMission 119026.17842865
scalar OsgEarthNet.uav[15] utilizationEnergyMaintenance 110957.85740662
scalar OsgEarthNet.uav[15] utilizationEnergyCharge 226068.09606934
scalar OsgEarthNet.uav[15] utilizationEnergyOverdrawMission 0
scalar OsgEarthNet.uav[15] utilizationEnergyOverdrawMaintenance 0
scalar OsgEarthNet.uav[15] utilizationCountMissions 53
scalar OsgEarthNet.uav[15] utilizationCountManeuversMission 857
scalar OsgEarthNet.uav[15] utilizationCountManeuversMaintenance 106
scalar OsgEarthNet.uav[15] utilizationCountChargeState 53
scalar OsgEarthNet.uav[15] utilizationCountOverdrawnAfterMission 0
scalar OsgEarthNet.uav[15] utilizationCountIdleState 53
scalar OsgEarthNet.uav[15] utilizationFail 0
scalar OsgEarthNet.uav[15] simulationTime 259200
scalar OsgEarthNet.uav[16] utilizationSecMission 25325.930842835
scalar OsgEarthNet.uav[16] utilizationSecMaintenance 24479.09458511
scalar OsgEarthNet.uav[16] utilizationSecCharge 180438.35489391
scalar OsgEarthNet.uav[16] utilizationSecIdle 28956.61867814
scalar OsgEarthNet.uav[16] utilizationEnergyMission 120892.37317657
scalar OsgEarthNet.uav[16] utilizationEnergyMaintenance 114625.84139252
scalar OsgEarthNet.uav[16] utilizationEnergyCharge 235469.08447266
scalar OsgEarthNet.uav[16] utilizationEnergyOverdrawMission 0
scalar OsgEarthNet.uav[16] utilizationEnergyOverdrawMaintenance 0
scalar OsgEarthNet.uav[16] utilizationCountMissions 55
scalar OsgEarthNet.uav[16] utilizationCountManeuversMission 851
scalar OsgEarthNet.uav[16] utilizationCountManeuversMaintenance 110
scalar OsgEarthNet.uav[16] utilizationCountChargeState 55
scalar OsgEarthNet.uav[16] utilizationCountOverdrawnAfterMission 0
scalar OsgEarthNet.uav[16] utilizationCountIdleState 55
scalar OsgEarthNet.uav[16] utilizationFail 0
scalar OsgEarthNet.uav[16] simulationTime 259200
scalar OsgEarthNet.uav[17] utilizationSecMission 21546.463810751
scalar OsgEarthNet.uav[17] utilizationSecMaintenance 21135.525574929
scalar OsgEarthNet.uav[17] utilizationSecCharge 152686.00261432
scalar OsgEarthNet.uav[17] utilizationSecIdle 63832.007
scalar OsgEarthNet.uav[17] utilizationEnergyMission 105114.41692352
scalar OsgEarthNet.uav[17] utilizationEnergyMaintenance 98222.875934601
scalar OsgEarthNet.uav[17] utilizationEnergyCharge 198746.01000977
scalar OsgEarthNet.uav[17] utilizationEnergyOverdrawMission 0
scalar OsgEarthNet.uav[17] utilizationEnergyOverdrawMaintenance 0
scalar OsgEarthNet.uav[17] utilizationCountMissions 47
scalar OsgEarthNet.uav[17] utilizationCountManeuversMission 697
scalar OsgEarthNet.uav[17] utilizationCountManeuversMaintenance 94
scalar OsgEarthNet.uav[17] utilizationCountChargeState 47
scalar OsgEarthNet.uav[17] utilizationCountOverdrawnAfterMission 0
scalar OsgEarthNet.uav[17] utilizationCountIdleState 47
scalar OsgEarthNet.uav[17] utilizationFail 0
scalar OsgEarthNet.uav[17] simulationTime 259200
scalar OsgEarthNet.uav[18] utilizationSecMission 11310.3844135
scalar OsgEarthNet.uav[18] utilizationSecMaintenance 10548.689020202
scalar OsgEarthNet.uav[18] utilizationSecCharge 79388.919566297
scalar OsgEarthNet.uav[18] utilizationSecIdle 157952.006
scalar OsgEarthNet.uav[18] utilizationEnergyMission 54220.046482086
scalar OsgEarthNet.uav[18] utilizationEnergyMaintenance 47755.96352005
scalar OsgEarthNet.uav[18] utilizationEnergyCharge 104081.52270508
scalar OsgEarthNet.uav[18] utilizationEnergyOverdrawMission 0
scalar OsgEarthNet.uav[18] utilizationEnergyOverdrawMaintenance 0
scalar OsgEarthNet.uav[18] utilizationCountMissions 24
scalar OsgEarthNet.uav[18] utilizationCountManeuversMission 397
scalar OsgEarthNet.uav[18] utilizationCountManeuversMaintenance 48
scalar OsgEarthNet.uav[18] utilizationCountChargeState 24
scalar OsgEarthNet.uav[18] utilizationCountOverdrawnAfterMission 0
scalar OsgEarthNet.uav[18] utilizationCountIdleState 24
scalar OsgEarthNet.uav[18] utilizationFail 0
scalar OsgEarthNet.uav[18] simulationTime 259200
scalar OsgEarthNet.uav[19] utilizationSecMission 25057.164261729
scalar OsgEarthNet.uav[19] utilizationSecMaintenance 26013.503339382
scalar OsgEarthNet.uav[19] utilizationSecCharge 186697.33139889
scalar OsgEarthNet.uav[19] utilizationSecIdle 21432
scalar OsgEarthNet.uav[19] utilizationEnergyMission 124269.77643967
scalar OsgEarthNet.uav[19] utilizationEnergyMaintenance 121320.98675156
scalar OsgEarthNet.uav[19] utilizationEnergyCharge 243879.51782227
scalar OsgEarthNet.uav[19] utilizationEnergyOverdrawMission 0
scalar OsgEarthNet.uav[19] utilizationEnergyOverdrawMaintenance 0
scalar OsgEarthNet.uav[19] utilizationCountMissions 57
scalar OsgEarthNet.uav[19] utilizationCountManeuversMission 856
scalar OsgEarthNet.uav[19] utilizationCountManeuversMaintenance 113
scalar OsgEarthNet.uav[19] utilizationCountChargeState 57
scalar OsgEarthNet.uav[19] utilizationCountOverdrawnAfterMission 0
scalar OsgEarthNet.uav[19] utilizationCountIdleState 57
scalar OsgEarthNet.uav[19] utilizationFail 0
scalar OsgEarthNet.uav[19] simulationTime 259200
scalar OsgEarthNet.uav[20] utilizationSecMission 21845.350245479
scalar OsgEarthNet.uav[20] utilizationSecMaintenance 16161.736744974
scalar OsgEarthNet.uav[20] utilizationSecCharge 137310
scalar OsgEarthNet.uav[20] utilizationSecIdle 83882.912009547
scalar OsgEarthNet.uav[20] utilizationEnergyMission 104124.72932434
scalar OsgEarthNet.uav[20] utilizationEnergyMaintenance 75882.450466156
scalar OsgEarthNet.uav[20] utilizationEnergyCharge 179626.06005859
scalar OsgEarthNet.uav[20] utilizationEnergyOverdrawMission 0
scalar OsgEarthNet.uav[20] utilizationEnergyOverdrawMaintenance 0
scalar OsgEarthNet.uav[20] utilizationCountMissions 41
scalar OsgEarthNet.uav[20] utilizationCountManeuversMission 605
scalar OsgEarthNet.uav[20] utilizationCountManeuversMaintenance 82
scalar OsgEarthNet.uav[20] utilizationCountChargeState 41
scalar OsgEarthNet.uav[20] utilizationCountOverdrawnAfterMission 0
scalar OsgEarthNet.uav[20] utilizationCountIdleState 42
scalar OsgEarthNet.uav[20] utilizationFail 0
scalar OsgEarthNet.uav[20] simulationTime 259200
scalar OsgEarthNet.uav[21] utilizationSecMission 19175.797251099
scalar OsgEarthNet.uav[21] utilizationSecMaintenance 17435.86086384
scalar OsgEarthNet.uav[21] utilizationSecCharge 128460
scalar OsgEarthNet.uav[21] utilizationSecIdle 94128.340885061
scalar OsgEarthNet.uav[21] utilizationEnergyMission 90763.263299782
scalar OsgEarthNet.uav[21] utilizationEnergyMaintenance 81766.612785339
scalar OsgEarthNet.uav[21] utilizationEnergyCharge 169136.17236328
scalar OsgEarthNet.uav[21] utilizationEnergyOverdrawMission 0
scalar OsgEarthNet.uav[21] utilizationEnergyOverdrawMaintenance 88.134506225586
scalar OsgEarthNet.uav[21] utilizationCountMissions 38
scalar OsgEarthNet.uav[21] utilizationCountManeuversMission 462
scalar OsgEarthNet.uav[21] utilizationCountManeuversMaintenance 77
scalar OsgEarthNet.uav[21] utilizationCountChargeState 38
scalar OsgEarthNet.uav[21] utilizationCountOverdrawnAfterMission 1
scalar OsgEarthNet.uav[21] utilizationCountIdleState 39
scalar OsgEarthNet.uav[21] utilizationFail 0
scalar OsgEarthNet.uav[21] simulationTime 259200
scalar OsgEarthNet.uav[22] utilizationSecMission 22868.147663071
scalar OsgEarthNet.uav[22] utilizationSecMaintenance 21189.847336929
scalar OsgEarthNet.uav[22] utilizationSecCharge 161240
scalar OsgEarthNet.uav[22] utilizationSecIdle 53902.004
scalar OsgEarthNet.uav[22] utilizationEnergyMission 111890.95378113
scalar OsgEarthNet.uav[22] utilizationEnergyMaintenance 98264.279965929
scalar OsgEarthNet.uav[22] utilizationEnergyCharge 210992.17382812
scalar OsgEarthNet.uav[22] utilizationEnergyOverdrawMission 0
scalar OsgEarthNet.uav[22] utilizationEnergyOverdrawMaintenance 71.362701416016
scalar OsgEarthNet.uav[22] utilizationCountMissions 48
scalar OsgEarthNet.uav[22] utilizationCountManeuversMission 725
scalar OsgEarthNet.uav[22] utilizationCountManeuversMaintenance 97
scalar OsgEarthNet.uav[22] utilizationCountChargeState 48
scalar OsgEarthNet.uav[22] utilizationCountOverdrawnAfterMission 1
scalar OsgEarthNet.uav[22] utilizationCountIdleState 49
scalar OsgEarthNet.uav[22] utilizationFail 0
scalar OsgEarthNet.uav[22] simulationTime 259200
scalar OsgEarthNet.uav[23] utilizationSecMission 280
scalar OsgEarthNet.uav[23] utilizationSecMaintenance 534.03331269068
scalar OsgEarthNet.uav[23] utilizationSecCharge 3310
scalar OsgEarthNet.uav[23] utilizationSecIdle 255075.96568731
scalar OsgEarthNet.uav[23] utilizationEnergyMission 1422.3843536377
scalar OsgEarthNet.uav[23] utilizationEnergyMaintenance 2605.5866317749
scalar OsgEarthNet.uav[23] utilizationEnergyCharge 4248.9658203125
scalar OsgEarthNet.uav[23] utilizationEnergyOverdrawMission 0
scalar OsgEarthNet.uav[23] utilizationEnergyOverdrawMaintenance 0
scalar OsgEarthNet.uav[23] utilizationCountMissions 1
scalar OsgEarthNet.uav[23] utilizationCountManeuversMission 14
scalar OsgEarthNet.uav[23] utilizationCountManeuversMaintenance 2
scalar OsgEarthNet.uav[23] utilizationCountChargeState 1
scalar OsgEarthNet.uav[23] utilizationCountOverdrawnAfterMission 0
scalar OsgEarthNet.uav[23] utilizationCountIdleState 2
scalar OsgEarthNet.uav[23] utilizationFail 0
scalar OsgEarthNet.uav[23] simulationTime 259200
scalar OsgEarthNet.uav[24] utilizationSecMission 24860.059026224
scalar OsgEarthNet.uav[24] utilizationSecMaintenance 26912.752717302
scalar OsgEarthNet.uav[24] utilizationSecCharge 188405.18725647
scalar OsgEarthNet.uav[24] utilizationSecIdle 19022
scalar OsgEarthNet.uav[24] utilizationEnergyMission 120823.40025711
scalar OsgEarthNet.uav[24] utilizationEnergyMaintenance 126890.60532379
scalar OsgEarthNet.uav[24] utilizationEnergyCharge 246810.6328125
scalar OsgEarthNet.uav[24] utilizationEnergyOverdrawMission 0
scalar OsgEarthNet.uav[24] utilizationEnergyOverdrawMaintenance 0
scalar OsgEarthNet.uav[24] utilizationCountMissions 57
scalar OsgEarthNet.uav[24] utilizationCountManeuversMission 835
scalar OsgEarthNet.uav[24] utilizationCountManeuversMaintenance 114
scalar OsgEarthNet.uav[24] utilizationCountChargeState 57
scalar OsgEarthNet.uav[24] utilizationCountOverdrawnAfterMission 0
scalar OsgEarthNet.uav[24] utilizationCountIdleState 57
scalar OsgEarthNet.uav[24] utilizationFail 0
scalar OsgEarthNet.uav[24] simulationTime 259200
scalar OsgEarthNet.uav[25] utilizationSecMission 13862.09011127
scalar OsgEarthNet.uav[25] utilizationSecMaintenance 13300.759680064
scalar OsgEarthNet.uav[25] utilizationSecCharge 99890
scalar OsgEarthNet.uav[25] utilizationSecIdle 132147.14920867
scalar OsgEarthNet.uav[25] utilizationEnergyMission 66929.245353699
scalar OsgEarthNet.uav[25] utilizationEnergyMaintenance 62052.128494263
scalar OsgEarthNet.uav[25] utilizationEnergyCharge 130262.90478516
scalar OsgEarthNet.uav[25] utilizationEnergyOverdrawMission 0
scalar OsgEarthNet.uav[25] utilizationEnergyOverdrawMaintenance 0
scalar OsgEarthNet.uav[25] utilizationCountMissions 30
scalar OsgEarthNet.uav[25] utilizationCountManeuversMission 448
scalar OsgEarthNet.uav[25] utilizationCountManeuversMaintenance 60
scalar OsgEarthNet.uav[25] utilizationCountChargeState 30
scalar OsgEarthNet.uav[25] utilizationCountOverdrawnAfterMission 0
scalar OsgEarthNet.uav[25] utilizationCountIdleState 31
scalar OsgEarthNet.uav[25] utilizationFail 0
scalar OsgEarthNet.uav[25] simulationTime 259200
scalar OsgEarthNet.uav[26] utilizationSecMission 20036.553444858
scalar OsgEarthNet.uav[26] utilizationSecMaintenance 19968.801348702
scalar OsgEarthNet.uav[26] utilizationSecCharge 147772.62920644
scalar OsgEarthNet.uav[26] utilizationSecIdle 71422.015
scalar OsgEarthNet.uav[26] utilizationEnergyMission 98839.262546539
scalar OsgEarthNet.uav[26] utilizationEnergyMaintenance 94052.068599701
scalar OsgEarthNet.uav[26] utilizationEnergyCharge 193153.15356445
scalar OsgEarthNet.uav[26] utilizationEnergyOverdrawMission 0
scalar OsgEarthNet.uav[26] utilizationEnergyOverdrawMaintenance 0
scalar OsgEarthNet.uav[26] utilizationCountMissions 45
scalar OsgEarthNet.uav[26] utilizationCountManeuversMission 718
scalar OsgEarthNet.uav[26] utilizationCountManeuversMaintenance 90
scalar OsgEarthNet.uav[26] utilizationCountChargeState 45
scalar OsgEarthNet.uav[26] utilizationCountOverdrawnAfterMission 0
scalar OsgEarthNet.uav[26] utilizationCountIdleState 45
scalar OsgEarthNet.uav[26] utilizationFail 0
scalar OsgEarthNet.uav[26] simulationTime 259200
scalar OsgEarthNet.uav[27] utilizationSecMission 840.29575048101
scalar OsgEarthNet.uav[27] utilizationSecMaintenance 1032.2235030013
scalar OsgEarthNet.uav[27] utilizationSecCharge 6790
scalar OsgEarthNet.uav[27] utilizationSecIdle 250537.47974652
scalar OsgEarthNet.uav[27] utilizationEnergyMission 3658.2674865723
scalar OsgEarthNet.uav[27] utilizationEnergyMaintenance 5174.0732040405
scalar OsgEarthNet.uav[27] utilizationEnergyCharge 8858.2573242188
scalar OsgEarthNet.uav[27] utilizationEnergyOverdrawMission 0
scalar OsgEarthNet.uav[27] utilizationEnergyOverdrawMaintenance 0
scalar OsgEarthNet.uav[27] utilizationCountMissions 2
scalar OsgEarthNet.uav[27] utilizationCountManeuversMission 12
scalar OsgEarthNet.uav[27] utilizationCountManeuversMaintenance 4
scalar OsgEarthNet.uav[27] utilizationCountChargeState 2
scalar OsgEarthNet.uav[27] utilizationCountOverdrawnAfterMission 0
scalar OsgEarthNet.uav[27] utilizationCountIdleState 3
scalar OsgEarthNet.uav[27] utilizationFail 0
scalar OsgEarthNet.uav[27] simulationTime 259200
scalar OsgEarthNet.uav[28] utilizationSecMission 25046.487903009
scalar OsgEarthNet.uav[28] utilizationSecMaintenance 18941.508096991
scalar OsgEarthNet.uav[28] utilizationSecCharge 156860
scalar OsgEarthNet.uav[28] utilizationSecIdle 58352.003
scalar OsgEarthNet.uav[28] utilizationEnergyMission 122144.51203537
scalar OsgEarthNet.uav[28] utilizationEnergyMaintenance 88983.907660046
scalar OsgEarthNet.uav[28] utilizationEnergyCharge 205405.69604492
scalar OsgEarthNet.uav[28] utilizationEnergyOverdrawMission 0
scalar OsgEarthNet.uav[28] utilizationEnergyOverdrawMaintenance 0
scalar OsgEarthNet.uav[28] utilizationCountMissions 48
scalar OsgEarthNet.uav[28] utilizationCountManeuversMission 698
scalar OsgEarthNet.uav[28] utilizationCountManeuversMaintenance 96
scalar OsgEarthNet.uav[28] utilizationCountChargeState 47
scalar OsgEarthNet.uav[28] utilizationCountOverdrawnAfterMission 0
scalar OsgEarthNet.uav[28] utilizationCountIdleState 48
scalar OsgEarthNet.uav[28] utilizationFail 0
scalar OsgEarthNet.uav[28] simulationTime 259200
scalar OsgEarthNet.uav[29] utilizationSecMission 1823.1548248432
scalar OsgEarthNet.uav[29] utilizationSecMaintenance 1857.5552367298
scalar OsgEarthNet.uav[29] utilizationSecCharge 13320
scalar OsgEarthNet.uav[29] utilizationSecIdle 242199.28893843
scalar OsgEarthNet.uav[29] utilizationEnergyMission 8396.0920028686
scalar OsgEarthNet.uav[29] utilizationEnergyMaintenance 8800.9719696045
scalar OsgEarthNet.uav[29] utilizationEnergyCharge 17299.904541016
scalar OsgEarthNet.uav[29] utilizationEnergyOverdrawMission 0
scalar OsgEarthNet.uav[29] utilizationEnergyOverdrawMaintenance 0
scalar OsgEarthNet.uav[29] utilizationCountMissions 4
scalar OsgEarthNet.uav[29] utilizationCountManeuversMission 46
scalar OsgEarthNet.uav[29] utilizationCountManeuversMaintenance 8
scalar OsgEarthNet.uav[29] utilizationCountChargeState 4
scalar OsgEarthNet.uav[29] utilizationCountOverdrawnAfterMission 0
scalar OsgEarthNet.uav[29] utilizationCountIdleState 5
scalar OsgEarthNet.uav[29] utilizationFail 0
scalar OsgEarthNet.uav[29] simulationTime 259200
scalar OsgEarthNet.uav[30] utilizationSecMission 26792.971937644
scalar OsgEarthNet.uav[30] utilizationSecMaintenance 23716.45341555
scalar OsgEarthNet.uav[30] utilizationSecCharge 182738.57364681
scalar OsgEarthNet.uav[30] utilizationSecIdle 25952
scalar OsgEarthNet.uav[30] utilizationEnergyMission 130219.33629227
scalar OsgEarthNet.uav[30] utilizationEnergyMaintenance 110816.23607635
scalar OsgEarthNet.uav[30] utilizationEnergyCharge 239729.82836914
scalar OsgEarthNet.uav[30] utilizationEnergyOverdrawMission 0
scalar OsgEarthNet.uav[30] utilizationEnergyOverdrawMaintenance 0
scalar OsgEarthNet.uav[30] utilizationCountMissions 55
scalar OsgEarthNet.uav[30] utilizationCountManeuversMission 732
scalar OsgEarthNet.uav[30] utilizationCountManeuversMaintenance 109
scalar OsgEarthNet.uav[30] utilizationCountChargeState 55
scalar OsgEarthNet.uav[30] utilizationCountOverdrawnAfterMission 0
scalar OsgEarthNet.uav[30] utilizationCountIdleState 55
scalar OsgEarthNet.uav[30] utilizationFail 0
scalar OsgEarthNet.uav[30] simulationTime 259200
scalar OsgEarthNet.uav[31] utilizationSecMission 25288.565419903
scalar OsgEarthNet.uav[31] utilizationSecMaintenance 25480.686797179
scalar OsgEarthNet.uav[31] utilizationSecCharge 180824.06597503
scalar OsgEarthNet.uav[31] utilizationSecIdle 27606.680807888
scalar OsgEarthNet.uav[31] utilizationEnergyMission 122925.08535385
scalar OsgEarthNet.uav[31] utilizationEnergyMaintenance 118862.92254257
scalar OsgEarthNet.uav[31] utilizationEnergyCharge 236230.51391602
scalar OsgEarthNet.uav[31] utilizationEnergyOverdrawMission 0
scalar OsgEarthNet.uav[31] utilizationEnergyOverdrawMaintenance 45.239189147949
scalar OsgEarthNet.uav[31] utilizationCountMissions 55
scalar OsgEarthNet.uav[31] utilizationCountManeuversMission 857
scalar OsgEarthNet.uav[31] utilizationCountManeuversMaintenance 110
scalar OsgEarthNet.uav[31] utilizationCountChargeState 55
scalar OsgEarthNet.uav[31] utilizationCountOverdrawnAfterMission 1
scalar OsgEarthNet.uav[31] utilizationCountIdleState 55
scalar OsgEarthNet.uav[31] utilizationFail 0
scalar OsgEarthNet.uav[31] simulationTime 259200
scalar OsgEarthNet.uav[32] utilizationSecMission 28852.110728518
scalar OsgEarthNet.uav[32] utilizationSecMaintenance 23303.947101805
scalar OsgEarthNet.uav[32] utilizationSecCharge 184401.94116968
scalar OsgEarthNet.uav[32] utilizationSecIdle 22642
scalar OsgEarthNet.uav[32] utilizationEnergyMission 138010.45152664
scalar OsgEarthNet.uav[32] utilizationEnergyMaintenance 108530.49801254
scalar OsgEarthNet.uav[32] utilizationEnergyCharge 243429.01269531
scalar OsgEarthNet.uav[32] utilizationEnergyOverdrawMission 0
scalar OsgEarthNet.uav[32] utilizationEnergyOverdrawMaintenance 0
scalar OsgEarthNet.uav[32] utilizationCountMissions 55
scalar OsgEarthNet.uav[32] utilizationCountManeuversMission 774
scalar OsgEarthNet.uav[32] utilizationCountManeuversMaintenance 110
scalar OsgEarthNet.uav[32] utilizationCountChargeState 55
scalar OsgEarthNet.uav[32] utilizationCountOverdrawnAfterMission 0
scalar OsgEarthNet.uav[32] utilizationCountIdleState 55
scalar OsgEarthNet.uav[32] utilizationFail 0
scalar OsgEarthNet.uav[32] simulationTime 259200
scalar OsgEarthNet.uav[33] utilizationSecMission 20320.832141763
scalar OsgEarthNet.uav[33] utilizationSecMaintenance 22017.157858237
scalar OsgEarthNet.uav[33] utilizationSecCharge 153460
scalar OsgEarthNet.uav[33] utilizationSecIdle 63402.009
scalar OsgEarthNet.uav[33] utilizationEnergyMission 100835.60050201
scalar OsgEarthNet.uav[33] utilizationEnergyMaintenance 101760.45478593
scalar OsgEarthNet.uav[33] utilizationEnergyCharge 200235.67529297
scalar OsgEarthNet.uav[33] utilizationEnergyOverdrawMission 0
scalar OsgEarthNet.uav[33] utilizationEnergyOverdrawMaintenance 0
scalar OsgEarthNet.uav[33] utilizationCountMissions 46
scalar OsgEarthNet.uav[33] utilizationCountManeuversMission 673
scalar OsgEarthNet.uav[33] utilizationCountManeuversMaintenance 93
scalar OsgEarthNet.uav[33] utilizationCountChargeState 46
scalar OsgEarthNet.uav[33] utilizationCountOverdrawnAfterMission 0
scalar OsgEarthNet.uav[33] utilizationCountIdleState 47
scalar OsgEarthNet.uav[33] utilizationFail 0
scalar OsgEarthNet.uav[33] simulationTime 259200
scalar OsgEarthNet.uav[34] utilizationSecMission 26271.266637472
scalar OsgEarthNet.uav[34] utilizationSecMaintenance 20094.633222886
scalar OsgEarthNet.uav[34] utilizationSecCharge 166207.76635689
scalar OsgEarthNet.uav[34] utilizationSecIdle 46626.332782753
scalar OsgEarthNet.uav[34] utilizationEnergyMission 128045.96755981
scalar OsgEarthNet.uav[34] utilizationEnergyMaintenance 93016.081863403
scalar OsgEarthNet.uav[34] utilizationEnergyCharge 218380.15991211
scalar OsgEarthNet.uav[34] utilizationEnergyOverdrawMission 0
scalar OsgEarthNet.uav[34] utilizationEnergyOverdrawMaintenance 0
scalar OsgEarthNet.uav[34] utilizationCountMissions 50
scalar OsgEarthNet.uav[34] utilizationCountManeuversMission 765
scalar OsgEarthNet.uav[34] utilizationCountManeuversMaintenance 100
scalar OsgEarthNet.uav[34] utilizationCountChargeState 50
scalar OsgEarthNet.uav[34] utilizationCountOverdrawnAfterMission 0
scalar OsgEarthNet.uav[34] utilizationCountIdleState 50
scalar OsgEarthNet.uav[34] utilizationFail 0
scalar OsgEarthNet.uav[34] simulationTime 259200
scalar OsgEarthNet.uav[35] utilizationSecMission 22100.100586405
scalar OsgEarthNet.uav[35] utilizationSecMaintenance 25797.181715046
scalar OsgEarthNet.uav[35] utilizationSecCharge 172100.71469855
scalar OsgEarthNet.uav[35] utilizationSecIdle 39202.002
scalar OsgEarthNet.uav[35] utilizationEnergyMission 105480.78979874
scalar OsgEarthNet.uav[35] utilizationEnergyMaintenance 120836.91680527
scalar OsgEarthNet.uav[35] utilizationEnergyCharge 223767.4543457
scalar OsgEarthNet.uav[35] utilizationEnergyOverdrawMission 0
scalar OsgEarthNet.uav[35] utilizationEnergyOverdrawMaintenance 0
scalar OsgEarthNet.uav[35] utilizationCountMissions 53
scalar OsgEarthNet.uav[35] utilizationCountManeuversMission 736
scalar OsgEarthNet.uav[35] utilizationCountManeuversMaintenance 106
scalar OsgEarthNet.uav[35] utilizationCountChargeState 53
scalar OsgEarthNet.uav[35] utilizationCountOverdrawnAfterMission 0
scalar OsgEarthNet.uav[35] utilizationCountIdleState 53
scalar OsgEarthNet.uav[35] utilizationFail 0
scalar OsgEarthNet.uav[35] simulationTime 259200
scalar OsgEarthNet.uav[36] utilizationSecMission 360
scalar OsgEarthNet.uav[36] utilizationSecMaintenance 373.8841636065
scalar OsgEarthNet.uav[36] utilizationSecCharge 3030
scalar OsgEarthNet.uav[36] utilizationSecIdle 255436.11483639
scalar OsgEarthNet.uav[36] utilizationEnergyMission 1867.1798782349
scalar OsgEarthNet.uav[36] utilizationEnergyMaintenance 1882.1823348999
scalar OsgEarthNet.uav[36] utilizationEnergyCharge 3738.8530273438
scalar OsgEarthNet.uav[36] utilizationEnergyOverdrawMission 0
scalar OsgEarthNet.uav[36] utilizationEnergyOverdrawMaintenance 0
scalar OsgEarthNet.uav[36] utilizationCountMissions 1
scalar OsgEarthNet.uav[36] utilizationCountManeuversMission 18
scalar OsgEarthNet.uav[36] utilizationCountManeuversMaintenance 2
scalar OsgEarthNet.uav[36] utilizationCountChargeState 1
scalar OsgEarthNet.uav[36] utilizationCountOverdrawnAfterMission 0
scalar OsgEarthNet.uav[36] utilizationCountIdleState 2
scalar OsgEarthNet.uav[36] utilizationFail 0
scalar OsgEarthNet.uav[36] simulationTime 259200
scalar OsgEarthNet.uav[37] utilizationSecMission 23006.2945887
scalar OsgEarthNet.uav[37] utilizationSecMaintenance 21115.9404323
scalar OsgEarthNet.uav[37] utilizationSecCharge 159725.757979
scalar OsgEarthNet.uav[37] utilizationSecIdle 55352.006
scalar OsgEarthNet.uav[37] utilizationEnergyMission 113007.67321777
scalar OsgEarthNet.uav[37] utilizationEnergyMaintenance 98745.354354858
scalar OsgEarthNet.uav[37] utilizationEnergyCharge 209946.03564453
scalar OsgEarthNet.uav[37] utilizationEnergyOverdrawMission 0
scalar OsgEarthNet.uav[37] utilizationEnergyOverdrawMaintenance 98.833908081055
scalar OsgEarthNet.uav[37] utilizationCountMissions 48
scalar OsgEarthNet.uav[37] utilizationCountManeuversMission 715
scalar OsgEarthNet.uav[37] utilizationCountManeuversMaintenance 96
scalar OsgEarthNet.uav[37] utilizationCountChargeState 48
scalar OsgEarthNet.uav[37] utilizationCountOverdrawnAfterMission 1
scalar OsgEarthNet.uav[37] utilizationCountIdleState 48
scalar OsgEarthNet.uav[37] utilizationFail 0
scalar OsgEarthNet.uav[37] simulationTime 259200
scalar OsgEarthNet.uav[38] utilizationSecMission 25121.162818494
scalar OsgEarthNet.uav[38] utilizationSecMaintenance 23634.544333329
scalar OsgEarthNet.uav[38] utilizationSecCharge 173532.28884818
scalar OsgEarthNet.uav[38] utilizationSecIdle 36912.003
scalar OsgEarthNet.uav[38] utilizationEnergyMission 121496.81141663
scalar OsgEarthNet.uav[38] utilizationEnergyMaintenance 109577.06186295
scalar OsgEarthNet.uav[38] utilizationEnergyCharge 226341.77349854
scalar OsgEarthNet.uav[38] utilizationEnergyOverdrawMission 0
scalar OsgEarthNet.uav[38] utilizationEnergyOverdrawMaintenance 0
scalar OsgEarthNet.uav[38] utilizationCountMissions 53
scalar OsgEarthNet.uav[38] utilizationCountManeuversMission 807
scalar OsgEarthNet.uav[38] utilizationCountManeuversMaintenance 106
scalar OsgEarthNet.uav[38] utilizationCountChargeState 53
scalar OsgEarthNet.uav[38] utilizationCountOverdrawnAfterMission 0
scalar OsgEarthNet.uav[38] utilizationCountIdleState 53
scalar OsgEarthNet.uav[38] utilizationFail 0
scalar OsgEarthNet.uav[38] simulationTime 259200
scalar OsgEarthNet.uav[39] utilizationSecMission 24490.673443371
scalar OsgEarthNet.uav[39] utilizationSecMaintenance 25831.365645846
scalar OsgEarthNet.uav[39] utilizationSecCharge 183590
scalar OsgEarthNet.uav[39] utilizationSecIdle 25287.959910782
scalar OsgEarthNet.uav[39] utilizationEnergyMission 119962.21942139
scalar OsgEarthNet.uav[39] utilizationEnergyMaintenance 120769.44500351
scalar OsgEarthNet.uav[39] utilizationEnergyCharge 239948.32226562
scalar OsgEarthNet.uav[39] utilizationEnergyOverdrawMission 0
scalar OsgEarthNet.uav[39] utilizationEnergyOverdrawMaintenance 586.89300537109
scalar OsgEarthNet.uav[39] utilizationCountMissions 55
scalar OsgEarthNet.uav[39] utilizationCountManeuversMission 784
scalar OsgEarthNet.uav[39] utilizationCountManeuversMaintenance 110
scalar OsgEarthNet.uav[39] utilizationCountChargeState 55
scalar OsgEarthNet.uav[39] utilizationCountOverdrawnAfterMission 1
scalar OsgEarthNet.uav[39] utilizationCountIdleState 56
scalar OsgEarthNet.uav[39] utilizationFail 0
scalar OsgEarthNet.uav[39] simulationTime 259200
scalar OsgEarthNet.uav[40] utilizationSecMission 24973.931728822
scalar OsgEarthNet.uav[40] utilizationSecMaintenance 23146.605116615
scalar OsgEarthNet.uav[40] utilizationSecCharge 172747.45715456
scalar OsgEarthNet.uav[40] utilizationSecIdle 38332.005
scalar OsgEarthNet.uav[40] utilizationEnergyMission 119786.08839417
scalar OsgEarthNet.uav[40] utilizationEnergyMaintenance 107375.6287117
scalar OsgEarthNet.uav[40] utilizationEnergyCharge 226943.3527832
scalar OsgEarthNet.uav[40] utilizationEnergyOverdrawMission 0
scalar OsgEarthNet.uav[40] utilizationEnergyOverdrawMaintenance 0
scalar OsgEarthNet.uav[40] utilizationCountMissions 52
scalar OsgEarthNet.uav[40] utilizationCountManeuversMission 731
scalar OsgEarthNet.uav[40] utilizationCountManeuversMaintenance 104
scalar OsgEarthNet.uav[40] utilizationCountChargeState 52
scalar OsgEarthNet.uav[40] utilizationCountOverdrawnAfterMission 0
scalar OsgEarthNet.uav[40] utilizationCountIdleState 52
scalar OsgEarthNet.uav[40] utilizationFail 0
scalar OsgEarthNet.uav[40] simulationTime 259200
scalar OsgEarthNet.uav[41] utilizationSecMission 25636.251428435
scalar OsgEarthNet.uav[41] utilizationSecMaintenance 25537.970454911
scalar OsgEarthNet.uav[41] utilizationSecCharge 184973.77711665
scalar OsgEarthNet.uav[41] utilizationSecIdle 23052
scalar OsgEarthNet.uav[41] utilizationEnergyMission 124887.9011879
scalar OsgEarthNet.uav[41] utilizationEnergyMaintenance 118901.41319656
scalar OsgEarthNet.uav[41] utilizationEnergyCharge 242255.06164551
scalar OsgEarthNet.uav[41] utilizationEnergyOverdrawMission 0
scalar OsgEarthNet.uav[41] utilizationEnergyOverdrawMaintenance 0
scalar OsgEarthNet.uav[41] utilizationCountMissions 56
scalar OsgEarthNet.uav[41] utilizationCountManeuversMission 833
scalar OsgEarthNet.uav[41] utilizationCountManeuversMaintenance 111
scalar OsgEarthNet.uav[41] utilizationCountChargeState 56
scalar OsgEarthNet.uav[41] utilizationCountOverdrawnAfterMission 0
scalar OsgEarthNet.uav[41] utilizationCountIdleState 56
scalar OsgEarthNet.uav[41] utilizationFail 0
scalar OsgEarthNet.uav[41] simulationTime 259200
scalar OsgEarthNet.uav[42] utilizationSecMission 4394.3794895826
scalar OsgEarthNet.uav[42] utilizationSecMaintenance 3818.7987910001
scalar OsgEarthNet.uav[42] utilizationSecCharge 29860
scalar OsgEarthNet.uav[42] utilizationSecIdle 221126.82071942
scalar OsgEarthNet.uav[42] utilizationEnergyMission 21253.30557251
scalar OsgEarthNet.uav[42] utilizationEnergyMaintenance 18011.065628052
scalar OsgEarthNet.uav[42] utilizationEnergyCharge 38782.2890625
scalar OsgEarthNet.uav[42] utilizationEnergyOverdrawMission 0
scalar OsgEarthNet.uav[42] utilizationEnergyOverdrawMaintenance 0
scalar OsgEarthNet.uav[42] utilizationCountMissions 9
scalar OsgEarthNet.uav[42] utilizationCountManeuversMission 139
scalar OsgEarthNet.uav[42] utilizationCountManeuversMaintenance 18
scalar OsgEarthNet.uav[42] utilizationCountChargeState 9
scalar OsgEarthNet.uav[42] utilizationCountOverdrawnAfterMission 0
scalar OsgEarthNet.uav[42] utilizationCountIdleState 10
scalar OsgEarthNet.uav[42] utilizationFail 0
scalar OsgEarthNet.uav[42] simulationTime 259200
scalar OsgEarthNet.uav[43] utilizationSecMission 19951.751258752
scalar OsgEarthNet.uav[43] utilizationSecMaintenance 17840.789879402
scalar OsgEarthNet.uav[43] utilizationSecCharge 137500
scalar OsgEarthNet.uav[43] utilizationSecIdle 83907.457861845
scalar OsgEarthNet.uav[43] utilizationEnergyMission 96914.748241425
scalar OsgEarthNet.uav[43] utilizationEnergyMaintenance 82538.177246094
scalar OsgEarthNet.uav[43] utilizationEnergyCharge 178789.69116211
scalar OsgEarthNet.uav[43] utilizationEnergyOverdrawMission 0
scalar OsgEarthNet.uav[43] utilizationEnergyOverdrawMaintenance 0
scalar OsgEarthNet.uav[43] utilizationCountMissions 42
scalar OsgEarthNet.uav[43] utilizationCountManeuversMission 578
scalar OsgEarthNet.uav[43] utilizationCountManeuversMaintenance 84
scalar OsgEarthNet.uav[43] utilizationCountChargeState 42
scalar OsgEarthNet.uav[43] utilizationCountOverdrawnAfterMission 0
scalar OsgEarthNet.uav[43] utilizationCountIdleState 43
scalar OsgEarthNet.uav[43] utilizationFail 0
scalar OsgEarthNet.uav[43] simulationTime 259200
scalar OsgEarthNet.uav[44] utilizationSecMission 23860.914299433
scalar OsgEarthNet.uav[44] utilizationSecMaintenance 24129.668427433
scalar OsgEarthNet.uav[44] utilizationSecCharge 173977.41127313
scalar OsgEarthNet.uav[44] utilizationSecIdle 37232.005
scalar OsgEarthNet.uav[44] utilizationEnergyMission 116800.05521011
scalar OsgEarthNet.uav[44] utilizationEnergyMaintenance 111878.84428024
scalar OsgEarthNet.uav[44] utilizationEnergyCharge 227354.3371582
scalar OsgEarthNet.uav[44] utilizationEnergyOverdrawMission 0
scalar OsgEarthNet.uav[44] utilizationEnergyOverdrawMaintenance 0
scalar OsgEarthNet.uav[44] utilizationCountMissions 53
scalar OsgEarthNet.uav[44] utilizationCountManeuversMission 799
scalar OsgEarthNet.uav[44] utilizationCountManeuversMaintenance 106
scalar OsgEarthNet.uav[44] utilizationCountChargeState 53
scalar OsgEarthNet.uav[44] utilizationCountOverdrawnAfterMission 0
scalar OsgEarthNet.uav[44] utilizationCountIdleState 53
scalar OsgEarthNet.uav[44] utilizationFail 0
scalar OsgEarthNet.uav[44] simulationTime 259200
scalar OsgEarthNet.uav[45] utilizationSecMission 27295.995394896
scalar OsgEarthNet.uav[45] utilizationSecMaintenance 24324.724002951
scalar OsgEarthNet.uav[45] utilizationSecCharge 187627.27960215
scalar OsgEarthNet.uav[45] utilizationSecIdle 19952
scalar OsgEarthNet.uav[45] utilizationEnergyMission 132741.20556641
scalar OsgEarthNet.uav[45] utilizationEnergyMaintenance 113452.05332947
scalar OsgEarthNet.uav[45] utilizationEnergyCharge 245684.75488281
scalar OsgEarthNet.uav[45] utilizationEnergyOverdrawMission 0
scalar OsgEarthNet.uav[45] utilizationEnergyOverdrawMaintenance 0
scalar OsgEarthNet.uav[45] utilizationCountMissions 56
scalar OsgEarthNet.uav[45] utilizationCountManeuversMission 850
scalar OsgEarthNet.uav[45] utilizationCountManeuversMaintenance 112
scalar OsgEarthNet.uav[45] utilizationCountChargeState 56
scalar OsgEarthNet.uav[45] utilizationCountOverdrawnAfterMission 0
scalar OsgEarthNet.uav[45] utilizationCountIdleState 56
scalar OsgEarthNet.uav[45] utilizationFail 0
scalar OsgEarthNet.uav[45] simulationTime 259200
scalar OsgEarthNet.uav[46] utilizationSecMission 2086.0577501125
scalar OsgEarthNet.uav[46] utilizationSecMaintenance 2235.8479262197
scalar OsgEarthNet.uav[46] utilizationSecCharge 16190
scalar OsgEarthNet.uav[46] utilizationSecIdle 238688.09332367
scalar OsgEarthNet.uav[46] utilizationEnergyMission 10290.26108551
scalar OsgEarthNet.uav[46] utilizationEnergyMaintenance 10418.949165344
scalar OsgEarthNet.uav[46] utilizationEnergyCharge 20889.310058594
scalar OsgEarthNet.uav[46] utilizationEnergyOverdrawMission 0
scalar OsgEarthNet.uav[46] utilizationEnergyOverdrawMaintenance 0
scalar OsgEarthNet.uav[46] utilizationCountMissions 5
scalar OsgEarthNet.uav[46] utilizationCountManeuversMission 90
scalar OsgEarthNet.uav[46] utilizationCountManeuversMaintenance 10
scalar OsgEarthNet.uav[46] utilizationCountChargeState 5
scalar OsgEarthNet.uav[46] utilizationCountOverdrawnAfterMission 0
scalar OsgEarthNet.uav[46] utilizationCountIdleState 6
scalar OsgEarthNet.uav[46] utilizationFail 0
scalar OsgEarthNet.uav[46] simulationTime 259200
scalar OsgEarthNet.uav[47] utilizationSecMission 26215.014388472
scalar OsgEarthNet.uav[47] utilizationSecMaintenance 24327.029108351
scalar OsgEarthNet.uav[47] utilizationSecCharge 181935.95350318
scalar OsgEarthNet.uav[47] utilizationSecIdle 26722.002
scalar OsgEarthNet.uav[47] utilizationEnergyMission 129796.35612488
scalar OsgEarthNet.uav[47] utilizationEnergyMaintenance 112588.09949875
scalar OsgEarthNet.uav[47] utilizationEnergyCharge 236667.29064941
scalar OsgEarthNet.uav[47] utilizationEnergyOverdrawMission 0
scalar OsgEarthNet.uav[47] utilizationEnergyOverdrawMaintenance 0
scalar OsgEarthNet.uav[47] utilizationCountMissions 56
scalar OsgEarthNet.uav[47] utilizationCountManeuversMission 926
scalar OsgEarthNet.uav[47] utilizationCountManeuversMaintenance 112
scalar OsgEarthNet.uav[47] utilizationCountChargeState 56
scalar OsgEarthNet.uav[47] utilizationCountOverdrawnAfterMission 0
scalar OsgEarthNet.uav[47] utilizationCountIdleState 56
scalar OsgEarthNet.uav[47] utilizationFail 0
scalar OsgEarthNet.uav[47] simulationTime 259200
scalar OsgEarthNet.uav[48] utilizationSecMission 21920.831049485
scalar OsgEarthNet.uav[48] utilizationSecMaintenance 20220.881513814
scalar OsgEarthNet.uav[48] utilizationSecCharge 154580
scalar OsgEarthNet.uav[48] utilizationSecIdle 62478.286436701
scalar OsgEarthNet.uav[48] utilizationEnergyMission 107897.24573135
scalar OsgEarthNet.uav[48] utilizationEnergyMaintenance 94853.527118683
scalar OsgEarthNet.uav[48] utilizationEnergyCharge 201719.08569336
scalar OsgEarthNet.uav[48] utilizationEnergyOverdrawMission 0
scalar OsgEarthNet.uav[48] utilizationEnergyOverdrawMaintenance 0
scalar OsgEarthNet.uav[48] utilizationCountMissions 46
scalar OsgEarthNet.uav[48] utilizationCountManeuversMission 672
scalar OsgEarthNet.uav[48] utilizationCountManeuversMaintenance 92
scalar OsgEarthNet.uav[48] utilizationCountChargeState 46
scalar OsgEarthNet.uav[48] utilizationCountOverdrawnAfterMission 0
scalar OsgEarthNet.uav[48] utilizationCountIdleState 47
scalar OsgEarthNet.uav[48] utilizationFail 0
scalar OsgEarthNet.uav[48] simulationTime 259200
scalar OsgEarthNet.uav[49] utilizationSecMission 8622.2738003403
scalar OsgEarthNet.uav[49] utilizationSecMaintenance 10054.141074923
scalar OsgEarthNet.uav[49] utilizationSecCharge 67620
scalar OsgEarthNet.uav[49] utilizationSecIdle 172903.58412474
scalar OsgEarthNet.uav[49] utilizationEnergyMission 41050.719619751
scalar OsgEarthNet.uav[49] utilizationEnergyMaintenance 47257.721694946
scalar OsgEarthNet.uav[49] utilizationEnergyCharge 88676.544189453
scalar OsgEarthNet.uav[49] utilizationEnergyOverdrawMission 0
scalar OsgEarthNet.uav[49] utilizationEnergyOverdrawMaintenance 0
scalar OsgEarthNet.uav[49] utilizationCountMissions 20
scalar OsgEarthNet.uav[49] utilizationCountManeuversMission 225
scalar OsgEarthNet.uav[49] utilizationCountManeuversMaintenance 40
scalar OsgEarthNet.uav[49] utilizationCountChargeState 20
scalar OsgEarthNet.uav[49] utilizationCountOverdrawnAfterMission 0
scalar OsgEarthNet.uav[49] utilizationCountIdleState 20
scalar OsgEarthNet.uav[49] utilizationFail 0
scalar OsgEarthNet.uav[49] simulationTime 259200
scalar OsgEarthNet.uav[50] utilizationSecMission 6712.9923005564
scalar OsgEarthNet.uav[50] utilizationSecMaintenance 6903.2428492887
scalar OsgEarthNet.uav[50] utilizationSecCharge 47041.001910082
scalar OsgEarthNet.uav[50] utilizationSecIdle 198542.76194007
scalar OsgEarthNet.uav[50] utilizationEnergyMission 32446.268363953
scalar OsgEarthNet.uav[50] utilizationEnergyMaintenance 32289.362701416
scalar OsgEarthNet.uav[50] utilizationEnergyCharge 61714.569702148
scalar OsgEarthNet.uav[50] utilizationEnergyOverdrawMission 0
scalar OsgEarthNet.uav[50] utilizationEnergyOverdrawMaintenance 0
scalar OsgEarthNet.uav[50] utilizationCountMissions 15
scalar OsgEarthNet.uav[50] utilizationCountManeuversMission 169
scalar OsgEarthNet.uav[50] utilizationCountManeuversMaintenance 30
scalar OsgEarthNet.uav[50] utilizationCountChargeState 15
scalar OsgEarthNet.uav[50] utilizationCountOverdrawnAfterMission 0
scalar OsgEarthNet.uav[50] utilizationCountIdleState 15
scalar OsgEarthNet.uav[50] utilizationFail 0
scalar OsgEarthNet.uav[50] simulationTime 259200
scalar OsgEarthNet.uav[51] utilizationSecMission 26709.454682515
scalar OsgEarthNet.uav[51] utilizationSecMaintenance 21844.301642575
scalar OsgEarthNet.uav[51] utilizationSecCharge 176580
scalar OsgEarthNet.uav[51] utilizationSecIdle 34066.242674911
scalar OsgEarthNet.uav[51] utilizationEnergyMission 128349.34521866
scalar OsgEarthNet.uav[51] utilizationEnergyMaintenance 101832.8610878
scalar OsgEarthNet.uav[51] utilizationEnergyCharge 230554.77954102
scalar OsgEarthNet.uav[51] utilizationEnergyOverdrawMission 0
scalar OsgEarthNet.uav[51] utilizationEnergyOverdrawMaintenance 0
scalar OsgEarthNet.uav[51] utilizationCountMissions 53
scalar OsgEarthNet.uav[51] utilizationCountManeuversMission 814
scalar OsgEarthNet.uav[51] utilizationCountManeuversMaintenance 106
scalar OsgEarthNet.uav[51] utilizationCountChargeState 53
scalar OsgEarthNet.uav[51] utilizationCountOverdrawnAfterMission 0
scalar OsgEarthNet.uav[51] utilizationCountIdleState 53
scalar OsgEarthNet.uav[51] utilizationFail 0
scalar OsgEarthNet.uav[51] simulationTime 259200
scalar OsgEarthNet.uav[52] utilizationSecMission 22770.469096248
scalar OsgEarthNet.uav[52] utilizationSecMaintenance 21802.357923353
scalar OsgEarthNet.uav[52] utilizationSecCharge 161740
scalar OsgEarthNet.uav[52] utilizationSecIdle 52887.171980399
scalar OsgEarthNet.uav[52] utilizationEnergyMission 111415.82261276
scalar OsgEarthNet.uav[52] utilizationEnergyMaintenance 100295.8390007
scalar OsgEarthNet.uav[52] utilizationEnergyCharge 210506.81494141
scalar OsgEarthNet.uav[52] utilizationEnergyOverdrawMission 0
scalar OsgEarthNet.uav[52] utilizationEnergyOverdrawMaintenance 0
scalar OsgEarthNet.uav[52] utilizationCountMissions 49
scalar OsgEarthNet.uav[52] utilizationCountManeuversMission 731
scalar OsgEarthNet.uav[52] utilizationCountManeuversMaintenance 98
scalar OsgEarthNet.uav[52] utilizationCountChargeState 49
scalar OsgEarthNet.uav[52] utilizationCountOverdrawnAfterMission 0
scalar OsgEarthNet.uav[52] utilizationCountIdleState 50
scalar OsgEarthNet.uav[52] utilizationFail 0
scalar OsgEarthNet.uav[52] simulationTime 259200
scalar OsgEarthNet.uav[53] utilizationSecMission 26003.018490047
scalar OsgEarthNet.uav[53] utilizationSecMaintenance 22022.258859064
scalar OsgEarthNet.uav[53] utilizationSecCharge 171880.10057545
scalar OsgEarthNet.uav[53] utilizationSecIdle 39294.621075442
scalar OsgEarthNet.uav[53] utilizationEnergyMission 124389.97589874
scalar OsgEarthNet.uav[53] utilizationEnergyMaintenance 103466.28636169
scalar OsgEarthNet.uav[53] utilizationEnergyCharge 226157.69006348
scalar OsgEarthNet.uav[53] utilizationEnergyOverdrawMission 0
scalar OsgEarthNet.uav[53] utilizationEnergyOverdrawMaintenance 0
scalar OsgEarthNet.uav[53] utilizationCountMissions 52
scalar OsgEarthNet.uav[53] utilizationCountManeuversMission 763
scalar OsgEarthNet.uav[53] utilizationCountManeuversMaintenance 104
scalar OsgEarthNet.uav[53] utilizationCountChargeState 52
scalar OsgEarthNet.uav[53] utilizationCountOverdrawnAfterMission 0
scalar OsgEarthNet.uav[53] utilizationCountIdleState 50
scalar OsgEarthNet.uav[53] utilizationFail 0
scalar OsgEarthNet.uav[53] simulationTime 259200
scalar OsgEarthNet.uav[54] utilizationSecMission 17732.669022831
scalar OsgEarthNet.uav[54] utilizationSecMaintenance 16955.23306088
scalar OsgEarthNet.uav[54] utilizationSecCharge 125500.08891629
scalar OsgEarthNet.uav[54] utilizationSecIdle 99012.008
scalar OsgEarthNet.uav[54] utilizationEnergyMission 86303.44512558
scalar OsgEarthNet.uav[54] utilizationEnergyMaintenance 78417.523040771
scalar OsgEarthNet.uav[54] utilizationEnergyCharge 164813.65844727
scalar OsgEarthNet.uav[54] utilizationEnergyOverdrawMission 0
scalar OsgEarthNet.uav[54] utilizationEnergyOverdrawMaintenance 0
scalar OsgEarthNet.uav[54] utilizationCountMissions 38
scalar OsgEarthNet.uav[54] utilizationCountManeuversMission 563
scalar OsgEarthNet.uav[54] utilizationCountManeuversMaintenance 76
scalar OsgEarthNet.uav[54] utilizationCountChargeState 38
scalar OsgEarthNet.uav[54] utilizationCountOverdrawnAfterMission 0
scalar OsgEarthNet.uav[54] utilizationCountIdleState 36
scalar OsgEarthNet.uav[54] utilizationFail 0
scalar OsgEarthNet.uav[54] simulationTime 259200
scalar OsgEarthNet.uav[55] utilizationSecMission 25760.221291089
scalar OsgEarthNet.uav[55] utilizationSecMaintenance 21774.581457736
scalar OsgEarthNet.uav[55] utilizationSecCharge 172543.19625118
scalar OsgEarthNet.uav[55] utilizationSecIdle 39122
scalar OsgEarthNet.uav[55] utilizationEnergyMission 125475.58773422
scalar OsgEarthNet.uav[55] utilizationEnergyMaintenance 101545.52016449
scalar OsgEarthNet.uav[55] utilizationEnergyCharge 226580.94042969
scalar OsgEarthNet.uav[55] utilizationEnergyOverdrawMission 0
scalar OsgEarthNet.uav[55] utilizationEnergyOverdrawMaintenance 0
scalar OsgEarthNet.uav[55] utilizationCountMissions 52
scalar OsgEarthNet.uav[55] utilizationCountManeuversMission 788
scalar OsgEarthNet.uav[55] utilizationCountManeuversMaintenance 103
scalar OsgEarthNet.uav[55] utilizationCountChargeState 52
scalar OsgEarthNet.uav[55] utilizationCountOverdrawnAfterMission 0
scalar OsgEarthNet.uav[55] utilizationCountIdleState 51
scalar OsgEarthNet.uav[55] utilizationFail 0
scalar OsgEarthNet.uav[55] simulationTime 259200
scalar OsgEarthNet.uav[56] utilizationSecMission 13986.394691407
scalar OsgEarthNet.uav[56] utilizationSecMaintenance 17085.24319406
scalar OsgEarthNet.uav[56] utilizationSecCharge 112360
scalar OsgEarthNet.uav[56] utilizationSecIdle 115768.36111453
scalar OsgEarthNet.uav[56] utilizationEnergyMission 67765.215644836
scalar OsgEarthNet.uav[56] utilizationEnergyMaintenance 78751.503551483
scalar OsgEarthNet.uav[56] utilizationEnergyCharge 146453.50317383
scalar OsgEarthNet.uav[56] utilizationEnergyOverdrawMission 0
scalar OsgEarthNet.uav[56] utilizationEnergyOverdrawMaintenance 0
scalar OsgEarthNet.uav[56] utilizationCountMissions 34
scalar OsgEarthNet.uav[56] utilizationCountManeuversMission 467
scalar OsgEarthNet.uav[56] utilizationCountManeuversMaintenance 68
scalar OsgEarthNet.uav[56] utilizationCountChargeState 34
scalar OsgEarthNet.uav[56] utilizationCountOverdrawnAfterMission 0
scalar OsgEarthNet.uav[56] utilizationCountIdleState 34
scalar OsgEarthNet.uav[56] utilizationFail 0
scalar OsgEarthNet.uav[56] simulationTime 259200
scalar OsgEarthNet.uav[57] utilizationSecMission 20537.836366471
scalar OsgEarthNet.uav[57] utilizationSecMaintenance 20914.37314491
scalar OsgEarthNet.uav[57] utilizationSecCharge 148405.70228734
scalar OsgEarthNet.uav[57] utilizationSecIdle 69342.087201284
scalar OsgEarthNet.uav[57] utilizationEnergyMission 99679.696346283
scalar OsgEarthNet.uav[57] utilizationEnergyMaintenance 97523.784698486
scalar OsgEarthNet.uav[57] utilizationEnergyCharge 196488.92333984
scalar OsgEarthNet.uav[57] utilizationEnergyOverdrawMission 0
scalar OsgEarthNet.uav[57] utilizationEnergyOverdrawMaintenance 52.596654891968
scalar OsgEarthNet.uav[57] utilizationCountMissions 44
scalar OsgEarthNet.uav[57] utilizationCountManeuversMission 584
scalar OsgEarthNet.uav[57] utilizationCountManeuversMaintenance 88
scalar OsgEarthNet.uav[57] utilizationCountChargeState 44
scalar OsgEarthNet.uav[57] utilizationCountOverdrawnAfterMission 2
scalar OsgEarthNet.uav[57] utilizationCountIdleState 39
scalar OsgEarthNet.uav[57] utilizationFail 0
scalar OsgEarthNet.uav[57] simulationTime 259200
scalar OsgEarthNet.uav[58] utilizationSecMission 19448.643559565
scalar OsgEarthNet.uav[58] utilizationSecMaintenance 22493.408186974
scalar OsgEarthNet.uav[58] utilizationSecCharge 151780
scalar OsgEarthNet.uav[58] utilizationSecIdle 65477.947253461
scalar OsgEarthNet.uav[58] utilizationEnergyMission 93869.149829864
scalar OsgEarthNet.uav[58] utilizationEnergyMaintenance 104021.3958168
scalar OsgEarthNet.uav[58] utilizationEnergyCharge 197642.01074219
scalar OsgEarthNet.uav[58] utilizationEnergyOverdrawMission 0
scalar OsgEarthNet.uav[58] utilizationEnergyOverdrawMaintenance 0
scalar OsgEarthNet.uav[58] utilizationCountMissions 46
scalar OsgEarthNet.uav[58] utilizationCountManeuversMission 564
scalar OsgEarthNet.uav[58] utilizationCountManeuversMaintenance 92
scalar OsgEarthNet.uav[58] utilizationCountChargeState 46
scalar OsgEarthNet.uav[58] utilizationCountOverdrawnAfterMission 0
scalar OsgEarthNet.uav[58] utilizationCountIdleState 45
scalar OsgEarthNet.uav[58] utilizationFail 0
scalar OsgEarthNet.uav[58] simulationTime 259200
scalar OsgEarthNet.uav[59] utilizationSecMission 18531.615301971
scalar OsgEarthNet.uav[59] utilizationSecMaintenance 21316.369698029
scalar OsgEarthNet.uav[59] utilizationSecCharge 140440
scalar OsgEarthNet.uav[59] utilizationSecIdle 78912.014
scalar OsgEarthNet.uav[59] utilizationEnergyMission 89875.769165039
scalar OsgEarthNet.uav[59] utilizationEnergyMaintenance 98020.508968961
scalar OsgEarthNet.uav[59] utilizationEnergyCharge 184481.53588867
scalar OsgEarthNet.uav[59] utilizationEnergyOverdrawMission 0
scalar OsgEarthNet.uav[59] utilizationEnergyOverdrawMaintenance 5.8808498382568
scalar OsgEarthNet.uav[59] utilizationCountMissions 42
scalar OsgEarthNet.uav[59] utilizationCountManeuversMission 577
scalar OsgEarthNet.uav[59] utilizationCountManeuversMaintenance 85
scalar OsgEarthNet.uav[59] utilizationCountChargeState 42
scalar OsgEarthNet.uav[59] utilizationCountOverdrawnAfterMission 1
scalar OsgEarthNet.uav[59] utilizationCountIdleState 38
scalar OsgEarthNet.uav[59] utilizationFail 0
scalar OsgEarthNet.uav[59] simulationTime 259200
scalar OsgEarthNet.uav[60] utilizationSecMission 21609.699387175
scalar OsgEarthNet.uav[60] utilizationSecMaintenance 21779.68370481
scalar OsgEarthNet.uav[60] utilizationSecCharge 156050
scalar OsgEarthNet.uav[60] utilizationSecIdle 59760.615908016
scalar OsgEarthNet.uav[60] utilizationEnergyMission 103805.76859665
scalar OsgEarthNet.uav[60] utilizationEnergyMaintenance 100536.64452744
scalar OsgEarthNet.uav[60] utilizationEnergyCharge 204817.73071289
scalar OsgEarthNet.uav[60] utilizationEnergyOverdrawMission 0
scalar OsgEarthNet.uav[60] utilizationEnergyOverdrawMaintenance 0
scalar OsgEarthNet.uav[60] utilizationCountMissions 47
scalar OsgEarthNet.uav[60] utilizationCountManeuversMission 639
scalar OsgEarthNet.uav[60] utilizationCountManeuversMaintenance 94
scalar OsgEarthNet.uav[60] utilizationCountChargeState 47
scalar OsgEarthNet.uav[60] utilizationCountOverdrawnAfterMission 0
scalar OsgEarthNet.uav[60] utilizationCountIdleState 44
scalar OsgEarthNet.uav[60] utilizationFail 0
scalar OsgEarthNet.uav[60] simulationTime 259200
scalar OsgEarthNet.uav[61] utilizationSecMission 20533.625893967
scalar OsgEarthNet.uav[61] utilizationSecMaintenance 25632.539517817
scalar OsgEarthNet.uav[61] utilizationSecCharge 166860
scalar OsgEarthNet.uav[61] utilizationSecIdle 46173.833588217
scalar OsgEarthNet.uav[61] utilizationEnergyMission 99025.470581055
scalar OsgEarthNet.uav[61] utilizationEnergyMaintenance 119913.81532604
scalar OsgEarthNet.uav[61] utilizationEnergyCharge 217766.34716797
scalar OsgEarthNet.uav[61] utilizationEnergyOverdrawMission 0
scalar OsgEarthNet.uav[61] utilizationEnergyOverdrawMaintenance 0
scalar OsgEarthNet.uav[61] utilizationCountMissions 51
scalar OsgEarthNet.uav[61] utilizationCountManeuversMission 677
scalar OsgEarthNet.uav[61] utilizationCountManeuversMaintenance 103
scalar OsgEarthNet.uav[61] utilizationCountChargeState 51
scalar OsgEarthNet.uav[61] utilizationCountOverdrawnAfterMission 0
scalar OsgEarthNet.uav[61] utilizationCountIdleState 47
scalar OsgEarthNet.uav[61] utilizationFail 0
scalar OsgEarthNet.uav[61] simulationTime 259200
scalar OsgEarthNet.uav[62] utilizationSecMission 24907.763329895
scalar OsgEarthNet.uav[62] utilizationSecMaintenance 22563.736391111
scalar OsgEarthNet.uav[62] utilizationSecCharge 168036.49727899
scalar OsgEarthNet.uav[62] utilizationSecIdle 43692.002
scalar OsgEarthNet.uav[62] utilizationEnergyMission 119632.19895554
scalar OsgEarthNet.uav[62] utilizationEnergyMaintenance 105384.25188828
scalar OsgEarthNet.uav[62] utilizationEnergyCharge 221402.28277588
scalar OsgEarthNet.uav[62] utilizationEnergyOverdrawMission 0
scalar OsgEarthNet.uav[62] utilizationEnergyOverdrawMaintenance 0
scalar OsgEarthNet.uav[62] utilizationCountMissions 51
scalar OsgEarthNet.uav[62] utilizationCountManeuversMission 769
scalar OsgEarthNet.uav[62] utilizationCountManeuversMaintenance 102
scalar OsgEarthNet.uav[62] utilizationCountChargeState 51
scalar OsgEarthNet.uav[62] utilizationCountOverdrawnAfterMission 0
scalar OsgEarthNet.uav[62] utilizationCountIdleState 46
scalar OsgEarthNet.uav[62] utilizationFail 0
scalar OsgEarthNet.uav[62] simulationTime 259200
scalar OsgEarthNet.uav[63] utilizationSecMission 21576.771287659
scalar OsgEarthNet.uav[63] utilizationSecMaintenance 21517.257733177
scalar OsgEarthNet.uav[63] utilizationSecCharge 152523.67786742
scalar OsgEarthNet.uav[63] utilizationSecIdle 63582.292111747
scalar OsgEarthNet.uav[63] utilizationEnergyMission 102729.509552
scalar OsgEarthNet.uav[63] utilizationEnergyMaintenance 98084.35018158
scalar OsgEarthNet.uav[63] utilizationEnergyCharge 200234.60205078
scalar OsgEarthNet.uav[63] utilizationEnergyOverdrawMission 0
scalar OsgEarthNet.uav[63] utilizationEnergyOverdrawMaintenance 112.07885742188
scalar OsgEarthNet.uav[63] utilizationCountMissions 47
scalar OsgEarthNet.uav[63] utilizationCountManeuversMission 668
scalar OsgEarthNet.uav[63] utilizationCountManeuversMaintenance 94
scalar OsgEarthNet.uav[63] utilizationCountChargeState 47
scalar OsgEarthNet.uav[63] utilizationCountOverdrawnAfterMission 1
scalar OsgEarthNet.uav[63] utilizationCountIdleState 41
scalar OsgEarthNet.uav[63] utilizationFail 0
scalar OsgEarthNet.uav[63] simulationTime 259200
scalar OsgEarthNet.uav[64] utilizationSecMission 22332.085585747
scalar OsgEarthNet.uav[64] utilizationSecMaintenance 23206.232497869
scalar OsgEarthNet.uav[64] utilizationSecCharge 163057.34273303
scalar OsgEarthNet.uav[64] utilizationSecIdle 50604.338183351
scalar OsgEarthNet.uav[64] utilizationEnergyMission 108615.13608551
scalar OsgEarthNet.uav[64] utilizationEnergyMaintenance 108466.06805038
scalar OsgEarthNet.uav[64] utilizationEnergyCharge 216380.63305664
scalar OsgEarthNet.uav[64] utilizationEnergyOverdrawMission 0
scalar OsgEarthNet.uav[64] utilizationEnergyOverdrawMaintenance 0
scalar OsgEarthNet.uav[64] utilizationCountMissions 49
scalar OsgEarthNet.uav[64] utilizationCountManeuversMission 709
scalar OsgEarthNet.uav[64] utilizationCountManeuversMaintenance 98
scalar OsgEarthNet.uav[64] utilizationCountChargeState 49
scalar OsgEarthNet.uav[64] utilizationCountOverdrawnAfterMission 0
scalar OsgEarthNet.uav[64] utilizationCountIdleState 40
scalar OsgEarthNet.uav[64] utilizationFail 0
scalar OsgEarthNet.uav[64] simulationTime 259200
scalar OsgEarthNet.uav[65] utilizationSecMission 23605.342942049
scalar OsgEarthNet.uav[65] utilizationSecMaintenance 25225.024977285
scalar OsgEarthNet.uav[65] utilizationSecCharge 174800
scalar OsgEarthNet.uav[65] utilizationSecIdle 35569.631080665
scalar OsgEarthNet.uav[65] utilizationEnergyMission 114310.89445877
scalar OsgEarthNet.uav[65] utilizationEnergyMaintenance 117679.65624733
scalar OsgEarthNet.uav[65] utilizationEnergyCharge 230109.93286133
scalar OsgEarthNet.uav[65] utilizationEnergyOverdrawMission 0
scalar OsgEarthNet.uav[65] utilizationEnergyOverdrawMaintenance 321.88389968872
[...]
scalar OsgEarthNet.uav[81] utilizationCountManeuversMission 768
scalar OsgEarthNet.uav[81] utilizationCountManeuversMaintenance 119
scalar OsgEarthNet.uav[81] utilizationCountChargeState 59
scalar OsgEarthNet.uav[81] utilizationCountOverdrawnAfterMission 0
scalar OsgEarthNet.uav[81] utilizationCountIdleState 30
scalar OsgEarthNet.uav[81] utilizationFail 0
scalar OsgEarthNet.uav[81] simulationTime 259200
scalar OsgEarthNet.uav[82] utilizationSecMission 28064.178727647
scalar OsgEarthNet.uav[82] utilizationSecMaintenance 26810.901352759
scalar OsgEarthNet.uav[82] utilizationSecCharge 195002.91391959
scalar OsgEarthNet.uav[82] utilizationSecIdle 9322.005
scalar OsgEarthNet.uav[82] utilizationEnergyMission 137165.99745941
scalar OsgEarthNet.uav[82] utilizationEnergyMaintenance 125128.39419174
scalar OsgEarthNet.uav[82] utilizationEnergyCharge 262461.21972656
scalar OsgEarthNet.uav[82] utilizationEnergyOverdrawMission 0
scalar OsgEarthNet.uav[82] utilizationEnergyOverdrawMaintenance 0
scalar OsgEarthNet.uav[82] utilizationCountMissions 61
scalar OsgEarthNet.uav[82] utilizationCountManeuversMission 934
scalar OsgEarthNet.uav[82] utilizationCountManeuversMaintenance 122
scalar OsgEarthNet.uav[82] utilizationCountChargeState 61
scalar OsgEarthNet.uav[82] utilizationCountOverdrawnAfterMission 0
scalar OsgEarthNet.uav[82] utilizationCountIdleState 25
scalar OsgEarthNet.uav[82] utilizationFail 0
scalar OsgEarthNet.uav[82] simulationTime 259200
scalar OsgEarthNet.uav[83] utilizationSecMission 25480.328624093
scalar OsgEarthNet.uav[83] utilizationSecMaintenance 29057.662375907
scalar OsgEarthNet.uav[83] utilizationSecCharge 192370
scalar OsgEarthNet.uav[83] utilizationSecIdle 12292.008
scalar OsgEarthNet.uav[83] utilizationEnergyMission 123013.20608521
scalar OsgEarthNet.uav[83] utilizationEnergyMaintenance 133497.69011192
scalar OsgEarthNet.uav[83] utilizationEnergyCharge 257943.17260742
scalar OsgEarthNet.uav[83] utilizationEnergyOverdrawMission 0
scalar OsgEarthNet.uav[83] utilizationEnergyOverdrawMaintenance 0
scalar OsgEarthNet.uav[83] utilizationCountMissions 60
scalar OsgEarthNet.uav[83] utilizationCountManeuversMission 810
scalar OsgEarthNet.uav[83] utilizationCountManeuversMaintenance 121
scalar OsgEarthNet.uav[83] utilizationCountChargeState 60
scalar OsgEarthNet.uav[83] utilizationCountOverdrawnAfterMission 0
scalar OsgEarthNet.uav[83] utilizationCountIdleState 29
scalar OsgEarthNet.uav[83] utilizationFail 0
scalar OsgEarthNet.uav[83] simulationTime 259200
scalar OsgEarthNet.uav[84] utilizationSecMission 26982.305279594
scalar OsgEarthNet.uav[84] utilizationSecMaintenance 29249.138929224
scalar OsgEarthNet.uav[84] utilizationSecCharge 196190.20218392
scalar OsgEarthNet.uav[84] utilizationSecIdle 6778.3526072632
scalar OsgEarthNet.uav[84] utilizationEnergyMission 131290.3345108
scalar OsgEarthNet.uav[84] utilizationEnergyMaintenance 136221.64018631
scalar OsgEarthNet.uav[84] utilizationEnergyCharge 265544.73925781
scalar OsgEarthNet.uav[84] utilizationEnergyOverdrawMission 0
scalar OsgEarthNet.uav[84] utilizationEnergyOverdrawMaintenance 152.02110290527
scalar OsgEarthNet.uav[84] utilizationCountMissions 61
scalar OsgEarthNet.uav[84] utilizationCountManeuversMission 907
scalar OsgEarthNet.uav[84] utilizationCountManeuversMaintenance 122
scalar OsgEarthNet.uav[84] utilizationCountChargeState 61
scalar OsgEarthNet.uav[84] utilizationCountOverdrawnAfterMission 1
scalar OsgEarthNet.uav[84] utilizationCountIdleState 26
scalar OsgEarthNet.uav[84] utilizationFail 0
scalar OsgEarthNet.uav[84] simulationTime 259200
scalar OsgEarthNet.uav[85] utilizationSecMission 25930.130567551
scalar OsgEarthNet.uav[85] utilizationSecMaintenance 30800.519731424
scalar OsgEarthNet.uav[85] utilizationSecCharge 195247.34470102
scalar OsgEarthNet.uav[85] utilizationSecIdle 7222.004
scalar OsgEarthNet.uav[85] utilizationEnergyMission 124272.1016922
scalar OsgEarthNet.uav[85] utilizationEnergyMaintenance 142888.85832214
scalar OsgEarthNet.uav[85] utilizationEnergyCharge 264852.66333008
scalar OsgEarthNet.uav[85] utilizationEnergyOverdrawMission 0
scalar OsgEarthNet.uav[85] utilizationEnergyOverdrawMaintenance 0
scalar OsgEarthNet.uav[85] utilizationCountMissions 62
scalar OsgEarthNet.uav[85] utilizationCountManeuversMission 783
scalar OsgEarthNet.uav[85] utilizationCountManeuversMaintenance 124
scalar OsgEarthNet.uav[85] utilizationCountChargeState 62
scalar OsgEarthNet.uav[85] utilizationCountOverdrawnAfterMission 0
scalar OsgEarthNet.uav[85] utilizationCountIdleState 23
scalar OsgEarthNet.uav[85] utilizationFail 0
scalar OsgEarthNet.uav[85] simulationTime 259200
scalar OsgEarthNet.uav[86] utilizationSecMission 28400.657057299
scalar OsgEarthNet.uav[86] utilizationSecMaintenance 26698.423870662
scalar OsgEarthNet.uav[86] utilizationSecCharge 193775.79195045
scalar OsgEarthNet.uav[86] utilizationSecIdle 10325.126121592
scalar OsgEarthNet.uav[86] utilizationEnergyMission 135538.85797119
scalar OsgEarthNet.uav[86] utilizationEnergyMaintenance 124563.08379745
scalar OsgEarthNet.uav[86] utilizationEnergyCharge 261818.69091797
scalar OsgEarthNet.uav[86] utilizationEnergyOverdrawMission 0
scalar OsgEarthNet.uav[86] utilizationEnergyOverdrawMaintenance 0
scalar OsgEarthNet.uav[86] utilizationCountMissions 60
scalar OsgEarthNet.uav[86] utilizationCountManeuversMission 865
scalar OsgEarthNet.uav[86] utilizationCountManeuversMaintenance 120
scalar OsgEarthNet.uav[86] utilizationCountChargeState 60
scalar OsgEarthNet.uav[86] utilizationCountOverdrawnAfterMission 0
scalar OsgEarthNet.uav[86] utilizationCountIdleState 27
scalar OsgEarthNet.uav[86] utilizationFail 0
scalar OsgEarthNet.uav[86] simulationTime 259200
scalar OsgEarthNet.uav[87] utilizationSecMission 27933.273408396
scalar OsgEarthNet.uav[87] utilizationSecMaintenance 28185.669787643
scalar OsgEarthNet.uav[87] utilizationSecCharge 193480
scalar OsgEarthNet.uav[87] utilizationSecIdle 9601.0558039614
scalar OsgEarthNet.uav[87] utilizationEnergyMission 135292.20858383
scalar OsgEarthNet.uav[87] utilizationEnergyMaintenance 130176.74962144
scalar OsgEarthNet.uav[87] utilizationEnergyCharge 261029.80712891
scalar OsgEarthNet.uav[87] utilizationEnergyOverdrawMission 0
scalar OsgEarthNet.uav[87] utilizationEnergyOverdrawMaintenance 0
scalar OsgEarthNet.uav[87] utilizationCountMissions 61
scalar OsgEarthNet.uav[87] utilizationCountManeuversMission 872
scalar OsgEarthNet.uav[87] utilizationCountManeuversMaintenance 122
scalar OsgEarthNet.uav[87] utilizationCountChargeState 60
scalar OsgEarthNet.uav[87] utilizationCountOverdrawnAfterMission 0
scalar OsgEarthNet.uav[87] utilizationCountIdleState 25
scalar OsgEarthNet.uav[87] utilizationFail 0
scalar OsgEarthNet.uav[87] simulationTime 259200
scalar OsgEarthNet.uav[88] utilizationSecMission 28080.725160043
scalar OsgEarthNet.uav[88] utilizationSecMaintenance 27576.783465635
scalar OsgEarthNet.uav[88] utilizationSecCharge 195680.48937432
scalar OsgEarthNet.uav[88] utilizationSecIdle 7862.001
scalar OsgEarthNet.uav[88] utilizationEnergyMission 136570.97237015
scalar OsgEarthNet.uav[88] utilizationEnergyMaintenance 128109.45499039
scalar OsgEarthNet.uav[88] utilizationEnergyCharge 264569.12768555
scalar OsgEarthNet.uav[88] utilizationEnergyOverdrawMission 0
scalar OsgEarthNet.uav[88] utilizationEnergyOverdrawMaintenance 0
scalar OsgEarthNet.uav[88] utilizationCountMissions 61
scalar OsgEarthNet.uav[88] utilizationCountManeuversMission 865
scalar OsgEarthNet.uav[88] utilizationCountManeuversMaintenance 122
scalar OsgEarthNet.uav[88] utilizationCountChargeState 61
scalar OsgEarthNet.uav[88] utilizationCountOverdrawnAfterMission 0
scalar OsgEarthNet.uav[88] utilizationCountIdleState 26
scalar OsgEarthNet.uav[88] utilizationFail 0
scalar OsgEarthNet.uav[88] simulationTime 259200
scalar OsgEarthNet.uav[89] utilizationSecMission 29527.292439966
scalar OsgEarthNet.uav[89] utilizationSecMaintenance 25157.434980911
scalar OsgEarthNet.uav[89] utilizationSecCharge 191360
scalar OsgEarthNet.uav[89] utilizationSecIdle 13155.271579122
scalar OsgEarthNet.uav[89] utilizationEnergyMission 142347.34045193
scalar OsgEarthNet.uav[89] utilizationEnergyMaintenance 117142.34496307
scalar OsgEarthNet.uav[89] utilizationEnergyCharge 256849.15966797
scalar OsgEarthNet.uav[89] utilizationEnergyOverdrawMission 0
scalar OsgEarthNet.uav[89] utilizationEnergyOverdrawMaintenance 0
scalar OsgEarthNet.uav[89] utilizationCountMissions 58
scalar OsgEarthNet.uav[89] utilizationCountManeuversMission 862
scalar OsgEarthNet.uav[89] utilizationCountManeuversMaintenance 117
scalar OsgEarthNet.uav[89] utilizationCountChargeState 58
scalar OsgEarthNet.uav[89] utilizationCountOverdrawnAfterMission 0
scalar OsgEarthNet.uav[89] utilizationCountIdleState 30
scalar OsgEarthNet.uav[89] utilizationFail 0
scalar OsgEarthNet.uav[89] simulationTime 259200
scalar OsgEarthNet.uav[90] utilizationSecMission 28774.099337791
scalar OsgEarthNet.uav[90] utilizationSecMaintenance 25741.500349394
scalar OsgEarthNet.uav[90] utilizationSecCharge 191730
scalar OsgEarthNet.uav[90] utilizationSecIdle 12954.399312815
scalar OsgEarthNet.uav[90] utilizationEnergyMission 139414.20649455
scalar OsgEarthNet.uav[90] utilizationEnergyMaintenance 118775.36100006
scalar OsgEarthNet.uav[90] utilizationEnergyCharge 257943.25170898
scalar OsgEarthNet.uav[90] utilizationEnergyOverdrawMission 0
scalar OsgEarthNet.uav[90] utilizationEnergyOverdrawMaintenance 173.59727478027
scalar OsgEarthNet.uav[90] utilizationCountMissions 59
scalar OsgEarthNet.uav[90] utilizationCountManeuversMission 868
scalar OsgEarthNet.uav[90] utilizationCountManeuversMaintenance 119
scalar OsgEarthNet.uav[90] utilizationCountChargeState 59
scalar OsgEarthNet.uav[90] utilizationCountOverdrawnAfterMission 1
scalar OsgEarthNet.uav[90] utilizationCountIdleState 34
scalar OsgEarthNet.uav[90] utilizationFail 0
scalar OsgEarthNet.uav[90] simulationTime 259200
scalar OsgEarthNet.uav[91] utilizationSecMission 27721.299394148
scalar OsgEarthNet.uav[91] utilizationSecMaintenance 29153.029220377
scalar OsgEarthNet.uav[91] utilizationSecCharge 196031.05849596
scalar OsgEarthNet.uav[91] utilizationSecIdle 6294.6118895164
scalar OsgEarthNet.uav[91] utilizationEnergyMission 134595.99787903
scalar OsgEarthNet.uav[91] utilizationEnergyMaintenance 135869.56440735
scalar OsgEarthNet.uav[91] utilizationEnergyCharge 265411.0255127
scalar OsgEarthNet.uav[91] utilizationEnergyOverdrawMission 0
scalar OsgEarthNet.uav[91] utilizationEnergyOverdrawMaintenance 0
scalar OsgEarthNet.uav[91] utilizationCountMissions 62
scalar OsgEarthNet.uav[91] utilizationCountManeuversMission 883
scalar OsgEarthNet.uav[91] utilizationCountManeuversMaintenance 124
scalar OsgEarthNet.uav[91] utilizationCountChargeState 62
scalar OsgEarthNet.uav[91] utilizationCountOverdrawnAfterMission 0
scalar OsgEarthNet.uav[91] utilizationCountIdleState 23
scalar OsgEarthNet.uav[91] utilizationFail 0
scalar OsgEarthNet.uav[91] simulationTime 259200
scalar OsgEarthNet.uav[92] utilizationSecMission 29881.682218798
scalar OsgEarthNet.uav[92] utilizationSecMaintenance 26709.155736098
scalar OsgEarthNet.uav[92] utilizationSecCharge 196824.66310393
scalar OsgEarthNet.uav[92] utilizationSecIdle 5784.4979411756
scalar OsgEarthNet.uav[92] utilizationEnergyMission 144572.5308075
scalar OsgEarthNet.uav[92] utilizationEnergyMaintenance 122800.92123032
scalar OsgEarthNet.uav[92] utilizationEnergyCharge 264618.67626953
scalar OsgEarthNet.uav[92] utilizationEnergyOverdrawMission 0
scalar OsgEarthNet.uav[92] utilizationEnergyOverdrawMaintenance 0
scalar OsgEarthNet.uav[92] utilizationCountMissions 62
scalar OsgEarthNet.uav[92] utilizationCountManeuversMission 962
scalar OsgEarthNet.uav[92] utilizationCountManeuversMaintenance 124
scalar OsgEarthNet.uav[92] utilizationCountChargeState 62
scalar OsgEarthNet.uav[92] utilizationCountOverdrawnAfterMission 0
scalar OsgEarthNet.uav[92] utilizationCountIdleState 25
scalar OsgEarthNet.uav[92] utilizationFail 0
scalar OsgEarthNet.uav[92] simulationTime 259200
scalar OsgEarthNet.uav[93] utilizationSecMission 28012.1746523
scalar OsgEarthNet.uav[93] utilizationSecMaintenance 27610.231873711
scalar OsgEarthNet.uav[93] utilizationSecCharge 195025.58147399
scalar OsgEarthNet.uav[93] utilizationSecIdle 8552.011
scalar OsgEarthNet.uav[93] utilizationEnergyMission 136443.32247162
scalar OsgEarthNet.uav[93] utilizationEnergyMaintenance 128709.11742783
scalar OsgEarthNet.uav[93] utilizationEnergyCharge 263820.0012207
scalar OsgEarthNet.uav[93] utilizationEnergyOverdrawMission 0
scalar OsgEarthNet.uav[93] utilizationEnergyOverdrawMaintenance 68.156127929688
scalar OsgEarthNet.uav[93] utilizationCountMissions 61
scalar OsgEarthNet.uav[93] utilizationCountManeuversMission 900
scalar OsgEarthNet.uav[93] utilizationCountManeuversMaintenance 122
scalar OsgEarthNet.uav[93] utilizationCountChargeState 61
scalar OsgEarthNet.uav[93] utilizationCountOverdrawnAfterMission 1
scalar OsgEarthNet.uav[93] utilizationCountIdleState 18
scalar OsgEarthNet.uav[93] utilizationFail 0
scalar OsgEarthNet.uav[93] simulationTime 259200
scalar OsgEarthNet.uav[94] utilizationSecMission 27975.335391996
scalar OsgEarthNet.uav[94] utilizationSecMaintenance 28101.098808333
scalar OsgEarthNet.uav[94] utilizationSecCharge 194861.55479967
scalar OsgEarthNet.uav[94] utilizationSecIdle 8262.01
scalar OsgEarthNet.uav[94] utilizationEnergyMission 137592.73917389
scalar OsgEarthNet.uav[94] utilizationEnergyMaintenance 129563.4894104
scalar OsgEarthNet.uav[94] utilizationEnergyCharge 262419.65545654
scalar OsgEarthNet.uav[94] utilizationEnergyOverdrawMission 0
scalar OsgEarthNet.uav[94] utilizationEnergyOverdrawMaintenance 0
scalar OsgEarthNet.uav[94] utilizationCountMissions 62
scalar OsgEarthNet.uav[94] utilizationCountManeuversMission 933
scalar OsgEarthNet.uav[94] utilizationCountManeuversMaintenance 124
scalar OsgEarthNet.uav[94] utilizationCountChargeState 62
scalar OsgEarthNet.uav[94] utilizationCountOverdrawnAfterMission 0
scalar OsgEarthNet.uav[94] utilizationCountIdleState 23
scalar OsgEarthNet.uav[94] utilizationFail 0
scalar OsgEarthNet.uav[94] simulationTime 259200
scalar OsgEarthNet.uav[95] utilizationSecMission 28726.572044537
scalar OsgEarthNet.uav[95] utilizationSecMaintenance 27594.85336287
scalar OsgEarthNet.uav[95] utilizationSecCharge 195640
scalar OsgEarthNet.uav[95] utilizationSecIdle 7238.5735925931
scalar OsgEarthNet.uav[95] utilizationEnergyMission 138693.00790765
scalar OsgEarthNet.uav[95] utilizationEnergyMaintenance 127899.69325638
scalar OsgEarthNet.uav[95] utilizationEnergyCharge 264435.44921875
scalar OsgEarthNet.uav[95] utilizationEnergyOverdrawMission 0
scalar OsgEarthNet.uav[95] utilizationEnergyOverdrawMaintenance 291.70022583008
scalar OsgEarthNet.uav[95] utilizationCountMissions 61
scalar OsgEarthNet.uav[95] utilizationCountManeuversMission 904
scalar OsgEarthNet.uav[95] utilizationCountManeuversMaintenance 123
scalar OsgEarthNet.uav[95] utilizationCountChargeState 61
scalar OsgEarthNet.uav[95] utilizationCountOverdrawnAfterMission 1
scalar OsgEarthNet.uav[95] utilizationCountIdleState 28
scalar OsgEarthNet.uav[95] utilizationFail 0
scalar OsgEarthNet.uav[95] simulationTime 259200
scalar OsgEarthNet.uav[96] utilizationSecMission 25773.580128395
scalar OsgEarthNet.uav[96] utilizationSecMaintenance 30873.575445788
scalar OsgEarthNet.uav[96] utilizationSecCharge 195280.83342582
scalar OsgEarthNet.uav[96] utilizationSecIdle 7272.01
scalar OsgEarthNet.uav[96] utilizationEnergyMission 124301.12428665
scalar OsgEarthNet.uav[96] utilizationEnergyMaintenance 144658.8771553
scalar OsgEarthNet.uav[96] utilizationEnergyCharge 269108.8659668
scalar OsgEarthNet.uav[96] utilizationEnergyOverdrawMission 0
scalar OsgEarthNet.uav[96] utilizationEnergyOverdrawMaintenance 461.7599029541
scalar OsgEarthNet.uav[96] utilizationCountMissions 61
scalar OsgEarthNet.uav[96] utilizationCountManeuversMission 771
scalar OsgEarthNet.uav[96] utilizationCountManeuversMaintenance 122
scalar OsgEarthNet.uav[96] utilizationCountChargeState 61
scalar OsgEarthNet.uav[96] utilizationCountOverdrawnAfterMission 2
scalar OsgEarthNet.uav[96] utilizationCountIdleState 14
scalar OsgEarthNet.uav[96] utilizationFail 0
scalar OsgEarthNet.uav[96] simulationTime 259200
scalar OsgEarthNet.uav[97] utilizationSecMission 30097.266135521
scalar OsgEarthNet.uav[97] utilizationSecMaintenance 26762.720220071
scalar OsgEarthNet.uav[97] utilizationSecCharge 195562.69755819
scalar OsgEarthNet.uav[97] utilizationSecIdle 6777.3150862146
scalar OsgEarthNet.uav[97] utilizationEnergyMission 145348.20465851
scalar OsgEarthNet.uav[97] utilizationEnergyMaintenance 123341.79991913
scalar OsgEarthNet.uav[97] utilizationEnergyCharge 262942.50158691
scalar OsgEarthNet.uav[97] utilizationEnergyOverdrawMission 0
scalar OsgEarthNet.uav[97] utilizationEnergyOverdrawMaintenance 0
scalar OsgEarthNet.uav[97] utilizationCountMissions 61
scalar OsgEarthNet.uav[97] utilizationCountManeuversMission 802
scalar OsgEarthNet.uav[97] utilizationCountManeuversMaintenance 122
scalar OsgEarthNet.uav[97] utilizationCountChargeState 61
scalar OsgEarthNet.uav[97] utilizationCountOverdrawnAfterMission 0
scalar OsgEarthNet.uav[97] utilizationCountIdleState 22
scalar OsgEarthNet.uav[97] utilizationFail 0
scalar OsgEarthNet.uav[97] simulationTime 259200
scalar OsgEarthNet.uav[98] utilizationSecMission 26516.083372794
scalar OsgEarthNet.uav[98] utilizationSecMaintenance 30440.829126517
scalar OsgEarthNet.uav[98] utilizationSecCharge 197811.08050069
scalar OsgEarthNet.uav[98] utilizationSecIdle 4432.006
scalar OsgEarthNet.uav[98] utilizationEnergyMission 129352.57811737
scalar OsgEarthNet.uav[98] utilizationEnergyMaintenance 142218.6197052
scalar OsgEarthNet.uav[98] utilizationEnergyCharge 270978.9855957
scalar OsgEarthNet.uav[98] utilizationEnergyOverdrawMission 0
scalar OsgEarthNet.uav[98] utilizationEnergyOverdrawMaintenance 0
scalar OsgEarthNet.uav[98] utilizationCountMissions 63
scalar OsgEarthNet.uav[98] utilizationCountManeuversMission 906
scalar OsgEarthNet.uav[98] utilizationCountManeuversMaintenance 126
scalar OsgEarthNet.uav[98] utilizationCountChargeState 63
scalar OsgEarthNet.uav[98] utilizationCountOverdrawnAfterMission 0
scalar OsgEarthNet.uav[98] utilizationCountIdleState 13
scalar OsgEarthNet.uav[98] utilizationFail 0
scalar OsgEarthNet.uav[98] simulationTime 259200
scalar OsgEarthNet.uav[99] utilizationSecMission 27198.442897784
scalar OsgEarthNet.uav[99] utilizationSecMaintenance 29520.120705846
scalar OsgEarthNet.uav[99] utilizationSecCharge 195887.41612164
scalar OsgEarthNet.uav[99] utilizationSecIdle 6594.0192747331
scalar OsgEarthNet.uav[99] utilizationEnergyMission 130052.7822876
scalar OsgEarthNet.uav[99] utilizationEnergyMaintenance 136996.48918152
scalar OsgEarthNet.uav[99] utilizationEnergyCharge 266951.42260742
scalar OsgEarthNet.uav[99] utilizationEnergyOverdrawMission 0
scalar OsgEarthNet.uav[99] utilizationEnergyOverdrawMaintenance 0
scalar OsgEarthNet.uav[99] utilizationCountMissions 62
scalar OsgEarthNet.uav[99] utilizationCountManeuversMission 815
scalar OsgEarthNet.uav[99] utilizationCountManeuversMaintenance 124
scalar OsgEarthNet.uav[99] utilizationCountChargeState 62
scalar OsgEarthNet.uav[99] utilizationCountOverdrawnAfterMission 0
scalar OsgEarthNet.uav[99] utilizationCountIdleState 16
scalar OsgEarthNet.uav[99] utilizationFail 0
scalar OsgEarthNet.uav[99] simulationTime 259200
scalar OsgEarthNet.cs[0] usedPower 5521842.7165827
scalar OsgEarthNet.cs[0] chargedPower 5521842.7165827
scalar OsgEarthNet.cs[0] chargedMobileNodes 975
scalar OsgEarthNet.cs[0] reservations 1288
scalar OsgEarthNet.cs[1] usedPower 5904619.2313934
scalar OsgEarthNet.cs[1] chargedPower 5904619.2313934
scalar OsgEarthNet.cs[1] chargedMobileNodes 984
scalar OsgEarthNet.cs[1] reservations 1333
scalar OsgEarthNet.cs[2] usedPower 9702243.3415093
scalar OsgEarthNet.cs[2] chargedPower 9702243.3415093
scalar OsgEarthNet.cs[2] chargedMobileNodes 1751
scalar OsgEarthNet.cs[2] reservations 2262

