version 2
run Szenario_Hotel_Gabelbach-57-20180707-23:14:17-22740
attr configname Szenario_Hotel_Gabelbach
attr datetime 20180707-23:14:17
attr experiment Szenario_Hotel_Gabelbach
attr inifile omnetpp.ini
attr iterationvars "$quant=0.95, $replM=0"
attr iterationvarsf quant=0.95,replM=0-
attr measurement "$quant=0.95, $replM=0"
attr network OsgEarthNet
attr processid 22740
attr repetition 9
attr replication #9
attr resultdir results
attr runnumber 57
attr seedset 57
itervar quant 0.95
itervar replM 0
param *.osgEarthScene.scene "\"Szenario_Hotel_Gabelbach.earth\""
param *.playgroundLatitude 50.6830269
param *.playgroundLongitude 10.8538055
param *.playgroundWidth 3500m
param *.playgroundHeight 3500m
param *.numCSs 3
param *.numUAVs 100
param *.cs[0].posX 3537m
param *.cs[0].posY 965m
param *.cs[0].posZ 538m
param *.cs[1].posX 312m
param *.cs[1].posY 1262m
param *.cs[1].posZ 539m
param *.cs[2].posX 2185m
param *.cs[2].posY 3026m
param *.cs[2].posZ 777m
param *.uav[*].predictionQuantile 0.95
param *.uav[*].replacementMethod 0
param *.*.timeStep 10s
param *.uav[*].commandPreviewCommandCount 20
param *.missionControl.missionFiles "\"missions\\\\Szenario_WB_Hotel_Gabelbach_Mission_Hotel.waypoints,missions\\\\Szenario_WB_Hotel_Gabelbach_Mission_Kickelhahn.waypoints,missions\\\\Szenario_WB_Hotel_Gabelbach_Mission_Ilmenau_Sportplatz.waypoints,missions\\\\Szenario_WB_Hotel_Gabelbach_Mission_Manebach_Mitte.waypoints,missions\\\\Szenario_WB_Hotel_Gabelbach_Mission_Manebach_Sued.waypoints,missions\\\\Szenario_WB_Hotel_Gabelbach_Hover_HoheSchlaufe.waypoints,missions\\\\Szenario_WB_Hotel_Gabelbach_Hover_Kickelhahn.waypoints,missions\\\\Szenario_WB_Hotel_Gabelbach_Hover_Gabelbachskopf.waypoints,missions\\\\Szenario_WB_Hotel_Gabelbach_Hover_Dachskopf.waypoints\""
param *.uav[0].startX 3537m
param *.uav[0].startY 965m
param *.uav[0].startZ 539m
param *.uav[1].startX 312m
param *.uav[1].startY 1262m
param *.uav[1].startZ 540m
param *.uav[2].startX 2185m
param *.uav[2].startY 3026m
param *.uav[2].startZ 778m
param *.uav[3].startX 3537m
param *.uav[3].startY 965m
param *.uav[3].startZ 539m
param *.uav[4].startX 312m
param *.uav[4].startY 1262m
param *.uav[4].startZ 540m
param *.uav[5].startX 2185m
param *.uav[5].startY 3026m
param *.uav[5].startZ 778m
param *.uav[6].startX 3537m
param *.uav[6].startY 965m
param *.uav[6].startZ 539m
param *.uav[7].startX 312m
param *.uav[7].startY 1262m
param *.uav[7].startZ 540m
param *.uav[8].startX 2185m
param *.uav[8].startY 3026m
param *.uav[8].startZ 778m
param *.uav[9].startX 3537m
param *.uav[9].startY 965m
param *.uav[9].startZ 539m
param *.uav[10].startX 3537m
param *.uav[10].startY 965m
param *.uav[10].startZ 539m
param *.uav[11].startX 312m
param *.uav[11].startY 1262m
param *.uav[11].startZ 540m
param *.uav[12].startX 2185m
param *.uav[12].startY 3026m
param *.uav[12].startZ 778m
param *.uav[13].startX 3537m
param *.uav[13].startY 965m
param *.uav[13].startZ 539m
param *.uav[14].startX 312m
param *.uav[14].startY 1262m
param *.uav[14].startZ 540m
param *.uav[15].startX 2185m
param *.uav[15].startY 3026m
param *.uav[15].startZ 778m
param *.uav[16].startX 3537m
param *.uav[16].startY 965m
param *.uav[16].startZ 539m
param *.uav[17].startX 312m
param *.uav[17].startY 1262m
param *.uav[17].startZ 540m
param *.uav[18].startX 2185m
param *.uav[18].startY 3026m
param *.uav[18].startZ 778m
param *.uav[19].startX 3537m
param *.uav[19].startY 965m
param *.uav[19].startZ 539m
param *.uav[20].startX 3537m
param *.uav[20].startY 965m
param *.uav[20].startZ 539m
param *.uav[21].startX 312m
param *.uav[21].startY 1262m
param *.uav[21].startZ 540m
param *.uav[22].startX 2185m
param *.uav[22].startY 3026m
param *.uav[22].startZ 778m
param *.uav[23].startX 3537m
param *.uav[23].startY 965m
param *.uav[23].startZ 539m
param *.uav[24].startX 312m
param *.uav[24].startY 1262m
param *.uav[24].startZ 540m
param *.uav[25].startX 2185m
param *.uav[25].startY 3026m
param *.uav[25].startZ 778m
param *.uav[26].startX 3537m
param *.uav[26].startY 965m
param *.uav[26].startZ 539m
param *.uav[27].startX 312m
param *.uav[27].startY 1262m
param *.uav[27].startZ 540m
param *.uav[28].startX 2185m
param *.uav[28].startY 3026m
param *.uav[28].startZ 778m
param *.uav[29].startX 3537m
param *.uav[29].startY 965m
param *.uav[29].startZ 539m
param *.uav[30].startX 3537m
param *.uav[30].startY 965m
param *.uav[30].startZ 539m
param *.uav[31].startX 312m
param *.uav[31].startY 1262m
param *.uav[31].startZ 540m
param *.uav[32].startX 2185m
param *.uav[32].startY 3026m
param *.uav[32].startZ 778m
param *.uav[33].startX 3537m
param *.uav[33].startY 965m
param *.uav[33].startZ 539m
param *.uav[34].startX 312m
param *.uav[34].startY 1262m
param *.uav[34].startZ 540m
param *.uav[35].startX 2185m
param *.uav[35].startY 3026m
param *.uav[35].startZ 778m
param *.uav[36].startX 3537m
param *.uav[36].startY 965m
param *.uav[36].startZ 539m
param *.uav[37].startX 312m
param *.uav[37].startY 1262m
param *.uav[37].startZ 540m
param *.uav[38].startX 2185m
param *.uav[38].startY 3026m
param *.uav[38].startZ 778m
param *.uav[39].startX 3537m
param *.uav[39].startY 965m
param *.uav[39].startZ 539m
param *.uav[40].startX 3537m
param *.uav[40].startY 965m
param *.uav[40].startZ 539m
param *.uav[41].startX 312m
param *.uav[41].startY 1262m
param *.uav[41].startZ 540m
param *.uav[42].startX 2185m
param *.uav[42].startY 3026m
param *.uav[42].startZ 778m
param *.uav[43].startX 3537m
param *.uav[43].startY 965m
param *.uav[43].startZ 539m
param *.uav[44].startX 312m
param *.uav[44].startY 1262m
param *.uav[44].startZ 540m
param *.uav[45].startX 2185m
param *.uav[45].startY 3026m
param *.uav[45].startZ 778m
param *.uav[46].startX 3537m
param *.uav[46].startY 965m
param *.uav[46].startZ 539m
param *.uav[47].startX 312m
param *.uav[47].startY 1262m
param *.uav[47].startZ 540m
param *.uav[48].startX 2185m
param *.uav[48].startY 3026m
param *.uav[48].startZ 778m
param *.uav[49].startX 3537m
param *.uav[49].startY 965m
param *.uav[49].startZ 539m
param *.uav[50].startX 3537m
param *.uav[50].startY 965m
param *.uav[50].startZ 539m
param *.uav[51].startX 312m
param *.uav[51].startY 1262m
param *.uav[51].startZ 540m
param *.uav[52].startX 2185m
param *.uav[52].startY 3026m
param *.uav[52].startZ 778m
param *.uav[53].startX 3537m
param *.uav[53].startY 965m
param *.uav[53].startZ 539m
param *.uav[54].startX 312m
param *.uav[54].startY 1262m
param *.uav[54].startZ 540m
param *.uav[55].startX 2185m
param *.uav[55].startY 3026m
param *.uav[55].startZ 778m
param *.uav[56].startX 3537m
param *.uav[56].startY 965m
param *.uav[56].startZ 539m
param *.uav[57].startX 312m
param *.uav[57].startY 1262m
param *.uav[57].startZ 540m
param *.uav[58].startX 2185m
param *.uav[58].startY 3026m
param *.uav[58].startZ 778m
param *.uav[59].startX 3537m
param *.uav[59].startY 965m
param *.uav[59].startZ 539m
param *.uav[60].startX 3537m
param *.uav[60].startY 965m
param *.uav[60].startZ 539m
param *.uav[61].startX 312m
param *.uav[61].startY 1262m
param *.uav[61].startZ 540m
param *.uav[62].startX 2185m
param *.uav[62].startY 3026m
param *.uav[62].startZ 778m
param *.uav[63].startX 3537m
param *.uav[63].startY 965m
param *.uav[63].startZ 539m
param *.uav[64].startX 312m
param *.uav[64].startY 1262m
param *.uav[64].startZ 540m
param *.uav[65].startX 2185m
param *.uav[65].startY 3026m
param *.uav[65].startZ 778m
param *.uav[66].startX 3537m
param *.uav[66].startY 965m
param *.uav[66].startZ 539m
param *.uav[67].startX 312m
param *.uav[67].startY 1262m
param *.uav[67].startZ 540m
param *.uav[68].startX 2185m
param *.uav[68].startY 3026m
param *.uav[68].startZ 778m
param *.uav[69].startX 3537m
param *.uav[69].startY 965m
param *.uav[69].startZ 539m
param *.uav[70].startX 3537m
param *.uav[70].startY 965m
param *.uav[70].startZ 539m
param *.uav[71].startX 312m
param *.uav[71].startY 1262m
param *.uav[71].startZ 540m
param *.uav[72].startX 2185m
param *.uav[72].startY 3026m
param *.uav[72].startZ 778m
param *.uav[73].startX 3537m
param *.uav[73].startY 965m
param *.uav[73].startZ 539m
param *.uav[74].startX 312m
param *.uav[74].startY 1262m
param *.uav[74].startZ 540m
param *.uav[75].startX 2185m
param *.uav[75].startY 3026m
param *.uav[75].startZ 778m
param *.uav[76].startX 3537m
param *.uav[76].startY 965m
param *.uav[76].startZ 539m
param *.uav[77].startX 312m
param *.uav[77].startY 1262m
param *.uav[77].startZ 540m
param *.uav[78].startX 2185m
param *.uav[78].startY 3026m
param *.uav[78].startZ 778m
param *.uav[79].startX 3537m
param *.uav[79].startY 965m
param *.uav[79].startZ 539m
param *.uav[80].startX 3537m
param *.uav[80].startY 965m
param *.uav[80].startZ 539m
param *.uav[81].startX 312m
param *.uav[81].startY 1262m
param *.uav[81].startZ 540m
param *.uav[82].startX 2185m
param *.uav[82].startY 3026m
param *.uav[82].startZ 778m
param *.uav[83].startX 3537m
param *.uav[83].startY 965m
param *.uav[83].startZ 539m
param *.uav[84].startX 312m
param *.uav[84].startY 1262m
param *.uav[84].startZ 540m
param *.uav[85].startX 2185m
param *.uav[85].startY 3026m
param *.uav[85].startZ 778m
param *.uav[86].startX 3537m
param *.uav[86].startY 965m
param *.uav[86].startZ 539m
param *.uav[87].startX 312m
param *.uav[87].startY 1262m
param *.uav[87].startZ 540m
param *.uav[88].startX 2185m
param *.uav[88].startY 3026m
param *.uav[88].startZ 778m
param *.uav[89].startX 3537m
param *.uav[89].startY 965m
param *.uav[89].startZ 539m
param *.uav[90].startX 3537m
param *.uav[90].startY 965m
param *.uav[90].startZ 539m
param *.uav[91].startX 312m
param *.uav[91].startY 1262m
param *.uav[91].startZ 540m
param *.uav[92].startX 2185m
param *.uav[92].startY 3026m
param *.uav[92].startZ 778m
param *.uav[93].startX 3537m
param *.uav[93].startY 965m
param *.uav[93].startZ 539m
param *.uav[94].startX 312m
param *.uav[94].startY 1262m
param *.uav[94].startZ 540m
param *.uav[95].startX 2185m
param *.uav[95].startY 3026m
param *.uav[95].startZ 778m
param *.uav[96].startX 3537m
param *.uav[96].startY 965m
param *.uav[96].startZ 539m
param *.uav[97].startX 312m
param *.uav[97].startY 1262m
param *.uav[97].startZ 540m
param *.uav[98].startX 2185m
param *.uav[98].startY 3026m
param *.uav[98].startZ 778m
param *.uav[99].startX 3537m
param *.uav[99].startY 965m
param *.uav[99].startZ 539m
param *.osgEarthScene.scene "\"boston.earth\""
param *.playgroundLatitude 42.3558
param *.playgroundLongitude -71.0677
param *.playgroundWidth 400m
param *.playgroundHeight 200m
param *.channelController.connectionColor "\"#0000FF40\""
param *.channelController.showConnections false
param *.uav[*].modelURL "\"quadrocopter.small.obj.15.scale.0,0,90.rot\""
param *.uav[*].labelColor "\"#FF7C00CC\""
param *.uav[*].label2Color "\"#FF7C00EE\""
param *.uav[*].batteryCapacity 5200mAh
param *.uav[*].batteryRemaining uav[index].batteryCapacity
param *.uav[*].predictionQuantile 0.95
param *.uav[*].replacementMethod 2
param *.uav[*].weightedSumWeight 0.5
param *.cs[*].modelURL "\"chargingstation_v1.osgt.1.scale.0,0,0.rot.0,0,-15e-1.trans\""
param *.cs[*].spotsWaiting 999
param *.cs[*].spotsCharging 999
param *.cs[*].chargeEffectivenessPercentage 100
param *.cs[*].nonLinearPhaseStartPercentage 85
param *.cs[*].chargeCurrent 6.0A
param *.cs[*].prioritizeFastCharge true
param *.missionControl.replacementSearchMethod 0
param *.*.timeStep 9s

scalar OsgEarthNet.uav[0] utilizationSecMission 650.68693590098
scalar OsgEarthNet.uav[0] utilizationSecMaintenance 350.31285707965
scalar OsgEarthNet.uav[0] utilizationSecCharge 3620
scalar OsgEarthNet.uav[0] utilizationSecIdle 254578.99920702
scalar OsgEarthNet.uav[0] utilizationEnergyMission 3075.0623016357
scalar OsgEarthNet.uav[0] utilizationEnergyMaintenance 1689.3681259155
scalar OsgEarthNet.uav[0] utilizationEnergyCharge 4764.4262695312
scalar OsgEarthNet.uav[0] utilizationEnergyOverdrawMission 0
scalar OsgEarthNet.uav[0] utilizationEnergyOverdrawMaintenance 0
scalar OsgEarthNet.uav[0] utilizationCountMissions 1
scalar OsgEarthNet.uav[0] utilizationCountManeuversMission 9
scalar OsgEarthNet.uav[0] utilizationCountManeuversMaintenance 2
scalar OsgEarthNet.uav[0] utilizationCountChargeState 1
scalar OsgEarthNet.uav[0] utilizationCountOverdrawnAfterMission 0
scalar OsgEarthNet.uav[0] utilizationCountIdleState 2
scalar OsgEarthNet.uav[0] utilizationFail 0
scalar OsgEarthNet.uav[0] simulationTime 259200
scalar OsgEarthNet.uav[1] utilizationSecMission 25483.763677621
scalar OsgEarthNet.uav[1] utilizationSecMaintenance 23955.185588629
scalar OsgEarthNet.uav[1] utilizationSecCharge 177559.89023834
scalar OsgEarthNet.uav[1] utilizationSecIdle 32201.15949541
scalar OsgEarthNet.uav[1] utilizationEnergyMission 123545.04092789
scalar OsgEarthNet.uav[1] utilizationEnergyMaintenance 111721.69133759
scalar OsgEarthNet.uav[1] utilizationEnergyCharge 232711.16088867
scalar OsgEarthNet.uav[1] utilizationEnergyOverdrawMission 0
scalar OsgEarthNet.uav[1] utilizationEnergyOverdrawMaintenance 0
scalar OsgEarthNet.uav[1] utilizationCountMissions 53
scalar OsgEarthNet.uav[1] utilizationCountManeuversMission 785
scalar OsgEarthNet.uav[1] utilizationCountManeuversMaintenance 106
scalar OsgEarthNet.uav[1] utilizationCountChargeState 53
scalar OsgEarthNet.uav[1] utilizationCountOverdrawnAfterMission 0
scalar OsgEarthNet.uav[1] utilizationCountIdleState 52
scalar OsgEarthNet.uav[1] utilizationFail 0
scalar OsgEarthNet.uav[1] simulationTime 259200
scalar OsgEarthNet.uav[2] utilizationSecMission 14777.910387401
scalar OsgEarthNet.uav[2] utilizationSecMaintenance 13690.082612599
scalar OsgEarthNet.uav[2] utilizationSecCharge 101970
scalar OsgEarthNet.uav[2] utilizationSecIdle 128762.006
scalar OsgEarthNet.uav[2] utilizationEnergyMission 70530.119574601
scalar OsgEarthNet.uav[2] utilizationEnergyMaintenance 64415.774078369
scalar OsgEarthNet.uav[2] utilizationEnergyCharge 133722.97216797
scalar OsgEarthNet.uav[2] utilizationEnergyOverdrawMission 0
scalar OsgEarthNet.uav[2] utilizationEnergyOverdrawMaintenance 0
scalar OsgEarthNet.uav[2] utilizationCountMissions 30
scalar OsgEarthNet.uav[2] utilizationCountManeuversMission 450
scalar OsgEarthNet.uav[2] utilizationCountManeuversMaintenance 61
scalar OsgEarthNet.uav[2] utilizationCountChargeState 30
scalar OsgEarthNet.uav[2] utilizationCountOverdrawnAfterMission 0
scalar OsgEarthNet.uav[2] utilizationCountIdleState 31
scalar OsgEarthNet.uav[2] utilizationFail 0
scalar OsgEarthNet.uav[2] simulationTime 259200
scalar OsgEarthNet.uav[3] utilizationSecMission 540
scalar OsgEarthNet.uav[3] utilizationSecMaintenance 363.8841636065
scalar OsgEarthNet.uav[3] utilizationSecCharge 3390
scalar OsgEarthNet.uav[3] utilizationSecIdle 254906.11483639
scalar OsgEarthNet.uav[3] utilizationEnergyMission 2426.3622360229
scalar OsgEarthNet.uav[3] utilizationEnergyMaintenance 1766.5344352722
scalar OsgEarthNet.uav[3] utilizationEnergyCharge 4309.2001953125
scalar OsgEarthNet.uav[3] utilizationEnergyOverdrawMission 0
scalar OsgEarthNet.uav[3] utilizationEnergyOverdrawMaintenance 0
scalar OsgEarthNet.uav[3] utilizationCountMissions 1
scalar OsgEarthNet.uav[3] utilizationCountManeuversMission 27
scalar OsgEarthNet.uav[3] utilizationCountManeuversMaintenance 2
scalar OsgEarthNet.uav[3] utilizationCountChargeState 1
scalar OsgEarthNet.uav[3] utilizationCountOverdrawnAfterMission 0
scalar OsgEarthNet.uav[3] utilizationCountIdleState 2
scalar OsgEarthNet.uav[3] utilizationFail 0
scalar OsgEarthNet.uav[3] simulationTime 259200
scalar OsgEarthNet.uav[4] utilizationSecMission 340
scalar OsgEarthNet.uav[4] utilizationSecMaintenance 507.16988087142
scalar OsgEarthNet.uav[4] utilizationSecCharge 3250
scalar OsgEarthNet.uav[4] utilizationSecIdle 255102.82911913
scalar OsgEarthNet.uav[4] utilizationEnergyMission 1856.6901779175
scalar OsgEarthNet.uav[4] utilizationEnergyMaintenance 2437.1311149597
scalar OsgEarthNet.uav[4] utilizationEnergyCharge 4108.5595703125
scalar OsgEarthNet.uav[4] utilizationEnergyOverdrawMission 0
scalar OsgEarthNet.uav[4] utilizationEnergyOverdrawMaintenance 0
scalar OsgEarthNet.uav[4] utilizationCountMissions 1
scalar OsgEarthNet.uav[4] utilizationCountManeuversMission 17
scalar OsgEarthNet.uav[4] utilizationCountManeuversMaintenance 2
scalar OsgEarthNet.uav[4] utilizationCountChargeState 1
scalar OsgEarthNet.uav[4] utilizationCountOverdrawnAfterMission 0
scalar OsgEarthNet.uav[4] utilizationCountIdleState 2
scalar OsgEarthNet.uav[4] utilizationFail 0
scalar OsgEarthNet.uav[4] simulationTime 259200
scalar OsgEarthNet.uav[5] utilizationSecMission 24916.780824591
scalar OsgEarthNet.uav[5] utilizationSecMaintenance 23233.792828118
scalar OsgEarthNet.uav[5] utilizationSecCharge 170900
scalar OsgEarthNet.uav[5] utilizationSecIdle 40149.42534729
scalar OsgEarthNet.uav[5] utilizationEnergyMission 119126.45847702
scalar OsgEarthNet.uav[5] utilizationEnergyMaintenance 107984.55155665
scalar OsgEarthNet.uav[5] utilizationEnergyCharge 225274.51245117
scalar OsgEarthNet.uav[5] utilizationEnergyOverdrawMission 0
scalar OsgEarthNet.uav[5] utilizationEnergyOverdrawMaintenance 239.23796844482
scalar OsgEarthNet.uav[5] utilizationCountMissions 51
scalar OsgEarthNet.uav[5] utilizationCountManeuversMission 761
scalar OsgEarthNet.uav[5] utilizationCountManeuversMaintenance 102
scalar OsgEarthNet.uav[5] utilizationCountChargeState 50
scalar OsgEarthNet.uav[5] utilizationCountOverdrawnAfterMission 2
scalar OsgEarthNet.uav[5] utilizationCountIdleState 51
scalar OsgEarthNet.uav[5] utilizationFail 0
scalar OsgEarthNet.uav[5] simulationTime 259200
scalar OsgEarthNet.uav[6] utilizationSecMission 1305.048320916
scalar OsgEarthNet.uav[6] utilizationSecMaintenance 1462.9797541926
scalar OsgEarthNet.uav[6] utilizationSecCharge 10290
scalar OsgEarthNet.uav[6] utilizationSecIdle 246141.97092489
scalar OsgEarthNet.uav[6] utilizationEnergyMission 6944.7796020508
scalar OsgEarthNet.uav[6] utilizationEnergyMaintenance 6613.5019874573
scalar OsgEarthNet.uav[6] utilizationEnergyCharge 13353.243164062
scalar OsgEarthNet.uav[6] utilizationEnergyOverdrawMission 0
scalar OsgEarthNet.uav[6] utilizationEnergyOverdrawMaintenance 0
scalar OsgEarthNet.uav[6] utilizationCountMissions 3
scalar OsgEarthNet.uav[6] utilizationCountManeuversMission 49
scalar OsgEarthNet.uav[6] utilizationCountManeuversMaintenance 6
scalar OsgEarthNet.uav[6] utilizationCountChargeState 3
scalar OsgEarthNet.uav[6] utilizationCountOverdrawnAfterMission 0
scalar OsgEarthNet.uav[6] utilizationCountIdleState 4
scalar OsgEarthNet.uav[6] utilizationFail 0
scalar OsgEarthNet.uav[6] simulationTime 259200
scalar OsgEarthNet.uav[7] utilizationSecMission 26630.59964425
scalar OsgEarthNet.uav[7] utilizationSecMaintenance 25328.871982488
scalar OsgEarthNet.uav[7] utilizationSecCharge 185228.52737326
scalar OsgEarthNet.uav[7] utilizationSecIdle 22012
scalar OsgEarthNet.uav[7] utilizationEnergyMission 126468.06574631
scalar OsgEarthNet.uav[7] utilizationEnergyMaintenance 118025.09589767
scalar OsgEarthNet.uav[7] utilizationEnergyCharge 243142.15087891
scalar OsgEarthNet.uav[7] utilizationEnergyOverdrawMission 0
scalar OsgEarthNet.uav[7] utilizationEnergyOverdrawMaintenance 0
scalar OsgEarthNet.uav[7] utilizationCountMissions 55
scalar OsgEarthNet.uav[7] utilizationCountManeuversMission 733
scalar OsgEarthNet.uav[7] utilizationCountManeuversMaintenance 109
scalar OsgEarthNet.uav[7] utilizationCountChargeState 55
scalar OsgEarthNet.uav[7] utilizationCountOverdrawnAfterMission 0
scalar OsgEarthNet.uav[7] utilizationCountIdleState 55
scalar OsgEarthNet.uav[7] utilizationFail 0
scalar OsgEarthNet.uav[7] simulationTime 259200
scalar OsgEarthNet.uav[8] utilizationSecMission 28450.983955404
scalar OsgEarthNet.uav[8] utilizationSecMaintenance 21633.106821398
scalar OsgEarthNet.uav[8] utilizationSecCharge 181713.9082232
scalar OsgEarthNet.uav[8] utilizationSecIdle 27402
scalar OsgEarthNet.uav[8] utilizationEnergyMission 138516.70149612
scalar OsgEarthNet.uav[8] utilizationEnergyMaintenance 99144.760574341
scalar OsgEarthNet.uav[8] utilizationEnergyCharge 238148.79199219
scalar OsgEarthNet.uav[8] utilizationEnergyOverdrawMission 0
scalar OsgEarthNet.uav[8] utilizationEnergyOverdrawMaintenance 0
scalar OsgEarthNet.uav[8] utilizationCountMissions 54
scalar OsgEarthNet.uav[8] utilizationCountManeuversMission 938
scalar OsgEarthNet.uav[8] utilizationCountManeuversMaintenance 108
scalar OsgEarthNet.uav[8] utilizationCountChargeState 54
scalar OsgEarthNet.uav[8] utilizationCountOverdrawnAfterMission 0
scalar OsgEarthNet.uav[8] utilizationCountIdleState 54
scalar OsgEarthNet.uav[8] utilizationFail 0
scalar OsgEarthNet.uav[8] simulationTime 259200
scalar OsgEarthNet.uav[9] utilizationSecMission 21560.248113014
scalar OsgEarthNet.uav[9] utilizationSecMaintenance 20255.134662704
scalar OsgEarthNet.uav[9] utilizationSecCharge 150938.18496306
scalar OsgEarthNet.uav[9] utilizationSecIdle 66446.431261223
scalar OsgEarthNet.uav[9] utilizationEnergyMission 105679.44340134
scalar OsgEarthNet.uav[9] utilizationEnergyMaintenance 94421.451377869
scalar OsgEarthNet.uav[9] utilizationEnergyCharge 198426.35522461
scalar OsgEarthNet.uav[9] utilizationEnergyOverdrawMission 0
scalar OsgEarthNet.uav[9] utilizationEnergyOverdrawMaintenance 0
scalar OsgEarthNet.uav[9] utilizationCountMissions 45
scalar OsgEarthNet.uav[9] utilizationCountManeuversMission 773
scalar OsgEarthNet.uav[9] utilizationCountManeuversMaintenance 90
scalar OsgEarthNet.uav[9] utilizationCountChargeState 45
scalar OsgEarthNet.uav[9] utilizationCountOverdrawnAfterMission 0
scalar OsgEarthNet.uav[9] utilizationCountIdleState 45
scalar OsgEarthNet.uav[9] utilizationFail 0
scalar OsgEarthNet.uav[9] simulationTime 259200
scalar OsgEarthNet.uav[10] utilizationSecMission 23570.204348162
scalar OsgEarthNet.uav[10] utilizationSecMaintenance 21036.688669523
scalar OsgEarthNet.uav[10] utilizationSecCharge 163410
scalar OsgEarthNet.uav[10] utilizationSecIdle 51183.105982315
scalar OsgEarthNet.uav[10] utilizationEnergyMission 116359.24200439
scalar OsgEarthNet.uav[10] utilizationEnergyMaintenance 98574.673419952
scalar OsgEarthNet.uav[10] utilizationEnergyCharge 214573.41577148
scalar OsgEarthNet.uav[10] utilizationEnergyOverdrawMission 0
scalar OsgEarthNet.uav[10] utilizationEnergyOverdrawMaintenance 0
scalar OsgEarthNet.uav[10] utilizationCountMissions 48
scalar OsgEarthNet.uav[10] utilizationCountManeuversMission 838
scalar OsgEarthNet.uav[10] utilizationCountManeuversMaintenance 96
scalar OsgEarthNet.uav[10] utilizationCountChargeState 48
scalar OsgEarthNet.uav[10] utilizationCountOverdrawnAfterMission 0
scalar OsgEarthNet.uav[10] utilizationCountIdleState 49
scalar OsgEarthNet.uav[10] utilizationFail 0
scalar OsgEarthNet.uav[10] simulationTime 259200
scalar OsgEarthNet.uav[11] utilizationSecMission 26714.945331029
scalar OsgEarthNet.uav[11] utilizationSecMaintenance 23045.387240474
scalar OsgEarthNet.uav[11] utilizationSecCharge 180451.3137997
scalar OsgEarthNet.uav[11] utilizationSecIdle 28988.352628794
scalar OsgEarthNet.uav[11] utilizationEnergyMission 131597.39312363
scalar OsgEarthNet.uav[11] utilizationEnergyMaintenance 106818.83254623
scalar OsgEarthNet.uav[11] utilizationEnergyCharge 237954.05102539
scalar OsgEarthNet.uav[11] utilizationEnergyOverdrawMission 0
scalar OsgEarthNet.uav[11] utilizationEnergyOverdrawMaintenance 0
scalar OsgEarthNet.uav[11] utilizationCountMissions 53
scalar OsgEarthNet.uav[11] utilizationCountManeuversMission 901
scalar OsgEarthNet.uav[11] utilizationCountManeuversMaintenance 106
scalar OsgEarthNet.uav[11] utilizationCountChargeState 53
scalar OsgEarthNet.uav[11] utilizationCountOverdrawnAfterMission 0
scalar OsgEarthNet.uav[11] utilizationCountIdleState 53
scalar OsgEarthNet.uav[11] utilizationFail 0
scalar OsgEarthNet.uav[11] simulationTime 259200
scalar OsgEarthNet.uav[12] utilizationSecMission 8817.286689741
scalar OsgEarthNet.uav[12] utilizationSecMaintenance 8077.188584934
scalar OsgEarthNet.uav[12] utilizationSecCharge 61130
scalar OsgEarthNet.uav[12] utilizationSecIdle 181175.52372533
scalar OsgEarthNet.uav[12] utilizationEnergyMission 42453.936412811
scalar OsgEarthNet.uav[12] utilizationEnergyMaintenance 37729.996059418
scalar OsgEarthNet.uav[12] utilizationEnergyCharge 79885.039794922
scalar OsgEarthNet.uav[12] utilizationEnergyOverdrawMission 0
scalar OsgEarthNet.uav[12] utilizationEnergyOverdrawMaintenance 0
scalar OsgEarthNet.uav[12] utilizationCountMissions 18
scalar OsgEarthNet.uav[12] utilizationCountManeuversMission 260
scalar OsgEarthNet.uav[12] utilizationCountManeuversMaintenance 36
scalar OsgEarthNet.uav[12] utilizationCountChargeState 18
scalar OsgEarthNet.uav[12] utilizationCountOverdrawnAfterMission 0
scalar OsgEarthNet.uav[12] utilizationCountIdleState 19
scalar OsgEarthNet.uav[12] utilizationFail 0
scalar OsgEarthNet.uav[12] simulationTime 259200
scalar OsgEarthNet.uav[13] utilizationSecMission 23810.691980197
scalar OsgEarthNet.uav[13] utilizationSecMaintenance 22083.407695667
scalar OsgEarthNet.uav[13] utilizationSecCharge 166893.88832414
scalar OsgEarthNet.uav[13] utilizationSecIdle 46412.011
scalar OsgEarthNet.uav[13] utilizationEnergyMission 115513.39822388
scalar OsgEarthNet.uav[13] utilizationEnergyMaintenance 103240.57967758
scalar OsgEarthNet.uav[13] utilizationEnergyCharge 219062.59423828
scalar OsgEarthNet.uav[13] utilizationEnergyOverdrawMission 0
scalar OsgEarthNet.uav[13] utilizationEnergyOverdrawMaintenance 0
scalar OsgEarthNet.uav[13] utilizationCountMissions 50
scalar OsgEarthNet.uav[13] utilizationCountManeuversMission 785
scalar OsgEarthNet.uav[13] utilizationCountManeuversMaintenance 100
scalar OsgEarthNet.uav[13] utilizationCountChargeState 50
scalar OsgEarthNet.uav[13] utilizationCountOverdrawnAfterMission 0
scalar OsgEarthNet.uav[13] utilizationCountIdleState 50
scalar OsgEarthNet.uav[13] utilizationFail 0
scalar OsgEarthNet.uav[13] simulationTime 259200
scalar OsgEarthNet.uav[14] utilizationSecMission 21920.59076979
scalar OsgEarthNet.uav[14] utilizationSecMaintenance 19821.766192388
scalar OsgEarthNet.uav[14] utilizationSecCharge 148510.32693008
scalar OsgEarthNet.uav[14] utilizationSecIdle 68947.315107746
scalar OsgEarthNet.uav[14] utilizationEnergyMission 104967.36392593
scalar OsgEarthNet.uav[14] utilizationEnergyMaintenance 92970.445850372
scalar OsgEarthNet.uav[14] utilizationEnergyCharge 194523.76733398
scalar OsgEarthNet.uav[14] utilizationEnergyOverdrawMission 0
scalar OsgEarthNet.uav[14] utilizationEnergyOverdrawMaintenance 0
scalar OsgEarthNet.uav[14] utilizationCountMissions 45
scalar OsgEarthNet.uav[14] utilizationCountManeuversMission 645
scalar OsgEarthNet.uav[14] utilizationCountManeuversMaintenance 90
scalar OsgEarthNet.uav[14] utilizationCountChargeState 45
scalar OsgEarthNet.uav[14] utilizationCountOverdrawnAfterMission 0
scalar OsgEarthNet.uav[14] utilizationCountIdleState 45
scalar OsgEarthNet.uav[14] utilizationFail 0
scalar OsgEarthNet.uav[14] simulationTime 259200
scalar OsgEarthNet.uav[15] utilizationSecMission 27015.495902523
scalar OsgEarthNet.uav[15] utilizationSecMaintenance 19577.503668547
scalar OsgEarthNet.uav[15] utilizationSecCharge 164654.99642893
scalar OsgEarthNet.uav[15] utilizationSecIdle 47952.003
scalar OsgEarthNet.uav[15] utilizationEnergyMission 127809.83747482
scalar OsgEarthNet.uav[15] utilizationEnergyMaintenance 89821.81022644
scalar OsgEarthNet.uav[15] utilizationEnergyCharge 215989.37036133
scalar OsgEarthNet.uav[15] utilizationEnergyOverdrawMission 0
scalar OsgEarthNet.uav[15] utilizationEnergyOverdrawMaintenance 0
scalar OsgEarthNet.uav[15] utilizationCountMissions 49
scalar OsgEarthNet.uav[15] utilizationCountManeuversMission 762
scalar OsgEarthNet.uav[15] utilizationCountManeuversMaintenance 98
scalar OsgEarthNet.uav[15] utilizationCountChargeState 49
scalar OsgEarthNet.uav[15] utilizationCountOverdrawnAfterMission 0
scalar OsgEarthNet.uav[15] utilizationCountIdleState 49
scalar OsgEarthNet.uav[15] utilizationFail 0
scalar OsgEarthNet.uav[15] simulationTime 259200
scalar OsgEarthNet.uav[16] utilizationSecMission 19307.08917672
scalar OsgEarthNet.uav[16] utilizationSecMaintenance 17677.589081142
scalar OsgEarthNet.uav[16] utilizationSecCharge 135510
scalar OsgEarthNet.uav[16] utilizationSecIdle 86705.320742138
scalar OsgEarthNet.uav[16] utilizationEnergyMission 94063.783168793
scalar OsgEarthNet.uav[16] utilizationEnergyMaintenance 83735.358283997
scalar OsgEarthNet.uav[16] utilizationEnergyCharge 177998.546875
scalar OsgEarthNet.uav[16] utilizationEnergyOverdrawMission 0
scalar OsgEarthNet.uav[16] utilizationEnergyOverdrawMaintenance 0
scalar OsgEarthNet.uav[16] utilizationCountMissions 40
scalar OsgEarthNet.uav[16] utilizationCountManeuversMission 587
scalar OsgEarthNet.uav[16] utilizationCountManeuversMaintenance 80
scalar OsgEarthNet.uav[16] utilizationCountChargeState 40
scalar OsgEarthNet.uav[16] utilizationCountOverdrawnAfterMission 0
scalar OsgEarthNet.uav[16] utilizationCountIdleState 41
scalar OsgEarthNet.uav[16] utilizationFail 0
scalar OsgEarthNet.uav[16] simulationTime 259200
scalar OsgEarthNet.uav[17] utilizationSecMission 26192.42628634
scalar OsgEarthNet.uav[17] utilizationSecMaintenance 22899.863000032
scalar OsgEarthNet.uav[17] utilizationSecCharge 175013.09782411
scalar OsgEarthNet.uav[17] utilizationSecIdle 35094.611889516
scalar OsgEarthNet.uav[17] utilizationEnergyMission 127259.90499496
scalar OsgEarthNet.uav[17] utilizationEnergyMaintenance 105898.65568161
scalar OsgEarthNet.uav[17] utilizationEnergyCharge 230219.03979492
scalar OsgEarthNet.uav[17] utilizationEnergyOverdrawMission 0
scalar OsgEarthNet.uav[17] utilizationEnergyOverdrawMaintenance 0
scalar OsgEarthNet.uav[17] utilizationCountMissions 52
scalar OsgEarthNet.uav[17] utilizationCountManeuversMission 792
scalar OsgEarthNet.uav[17] utilizationCountManeuversMaintenance 104
scalar OsgEarthNet.uav[17] utilizationCountChargeState 52
scalar OsgEarthNet.uav[17] utilizationCountOverdrawnAfterMission 0
scalar OsgEarthNet.uav[17] utilizationCountIdleState 52
scalar OsgEarthNet.uav[17] utilizationFail 0
scalar OsgEarthNet.uav[17] simulationTime 259200
scalar OsgEarthNet.uav[18] utilizationSecMission 26081.738797039
scalar OsgEarthNet.uav[18] utilizationSecMaintenance 23455.093274905
scalar OsgEarthNet.uav[18] utilizationSecCharge 176491.16592806
scalar OsgEarthNet.uav[18] utilizationSecIdle 33172.001
scalar OsgEarthNet.uav[18] utilizationEnergyMission 125817.99065399
scalar OsgEarthNet.uav[18] utilizationEnergyMaintenance 107774.47308731
scalar OsgEarthNet.uav[18] utilizationEnergyCharge 231403.05639648
scalar OsgEarthNet.uav[18] utilizationEnergyOverdrawMission 0
scalar OsgEarthNet.uav[18] utilizationEnergyOverdrawMaintenance 0
scalar OsgEarthNet.uav[18] utilizationCountMissions 53
scalar OsgEarthNet.uav[18] utilizationCountManeuversMission 841
scalar OsgEarthNet.uav[18] utilizationCountManeuversMaintenance 106
scalar OsgEarthNet.uav[18] utilizationCountChargeState 53
scalar OsgEarthNet.uav[18] utilizationCountOverdrawnAfterMission 0
scalar OsgEarthNet.uav[18] utilizationCountIdleState 53
scalar OsgEarthNet.uav[18] utilizationFail 0
scalar OsgEarthNet.uav[18] simulationTime 259200
scalar OsgEarthNet.uav[19] utilizationSecMission 29342.519382806
scalar OsgEarthNet.uav[19] utilizationSecMaintenance 21379.220058661
scalar OsgEarthNet.uav[19] utilizationSecCharge 180376.74589758
scalar OsgEarthNet.uav[19] utilizationSecIdle 28101.51366095
scalar OsgEarthNet.uav[19] utilizationEnergyMission 142475.04339218
scalar OsgEarthNet.uav[19] utilizationEnergyMaintenance 98352.847610474
scalar OsgEarthNet.uav[19] utilizationEnergyCharge 236579.07128906
scalar OsgEarthNet.uav[19] utilizationEnergyOverdrawMission 0
scalar OsgEarthNet.uav[19] utilizationEnergyOverdrawMaintenance 0
scalar OsgEarthNet.uav[19] utilizationCountMissions 54
scalar OsgEarthNet.uav[19] utilizationCountManeuversMission 865
scalar OsgEarthNet.uav[19] utilizationCountManeuversMaintenance 108
scalar OsgEarthNet.uav[19] utilizationCountChargeState 54
scalar OsgEarthNet.uav[19] utilizationCountOverdrawnAfterMission 0
scalar OsgEarthNet.uav[19] utilizationCountIdleState 54
scalar OsgEarthNet.uav[19] utilizationFail 0
scalar OsgEarthNet.uav[19] simulationTime 259200
scalar OsgEarthNet.uav[20] utilizationSecMission 27347.423565304
scalar OsgEarthNet.uav[20] utilizationSecMaintenance 24625.250382951
scalar OsgEarthNet.uav[20] utilizationSecCharge 186705.32505175
scalar OsgEarthNet.uav[20] utilizationSecIdle 20522
scalar OsgEarthNet.uav[20] utilizationEnergyMission 132014.46852875
scalar OsgEarthNet.uav[20] utilizationEnergyMaintenance 113908.42530441
scalar OsgEarthNet.uav[20] utilizationEnergyCharge 245679.60668945
scalar OsgEarthNet.uav[20] utilizationEnergyOverdrawMission 0
scalar OsgEarthNet.uav[20] utilizationEnergyOverdrawMaintenance 0
scalar OsgEarthNet.uav[20] utilizationCountMissions 55
scalar OsgEarthNet.uav[20] utilizationCountManeuversMission 861
scalar OsgEarthNet.uav[20] utilizationCountManeuversMaintenance 109
scalar OsgEarthNet.uav[20] utilizationCountChargeState 55
scalar OsgEarthNet.uav[20] utilizationCountOverdrawnAfterMission 0
scalar OsgEarthNet.uav[20] utilizationCountIdleState 55
scalar OsgEarthNet.uav[20] utilizationFail 0
scalar OsgEarthNet.uav[20] simulationTime 259200
scalar OsgEarthNet.uav[21] utilizationSecMission 2703.2697813357
scalar OsgEarthNet.uav[21] utilizationSecMaintenance 1963.6547665918
scalar OsgEarthNet.uav[21] utilizationSecCharge 16710
scalar OsgEarthNet.uav[21] utilizationSecIdle 237823.07445207
scalar OsgEarthNet.uav[21] utilizationEnergyMission 13781.905361176
scalar OsgEarthNet.uav[21] utilizationEnergyMaintenance 9060.6537666321
scalar OsgEarthNet.uav[21] utilizationEnergyCharge 21700.231933594
scalar OsgEarthNet.uav[21] utilizationEnergyOverdrawMission 0
scalar OsgEarthNet.uav[21] utilizationEnergyOverdrawMaintenance 0
scalar OsgEarthNet.uav[21] utilizationCountMissions 5
scalar OsgEarthNet.uav[21] utilizationCountManeuversMission 112
scalar OsgEarthNet.uav[21] utilizationCountManeuversMaintenance 10
scalar OsgEarthNet.uav[21] utilizationCountChargeState 5
scalar OsgEarthNet.uav[21] utilizationCountOverdrawnAfterMission 0
scalar OsgEarthNet.uav[21] utilizationCountIdleState 6
scalar OsgEarthNet.uav[21] utilizationFail 0
scalar OsgEarthNet.uav[21] simulationTime 259200
scalar OsgEarthNet.uav[22] utilizationSecMission 27565.693315686
scalar OsgEarthNet.uav[22] utilizationSecMaintenance 22680.566438154
scalar OsgEarthNet.uav[22] utilizationSecCharge 182691.73924616
scalar OsgEarthNet.uav[22] utilizationSecIdle 26262
scalar OsgEarthNet.uav[22] utilizationEnergyMission 136815.64707779
scalar OsgEarthNet.uav[22] utilizationEnergyMaintenance 104826.5779953
scalar OsgEarthNet.uav[22] utilizationEnergyCharge 240334.76831055
scalar OsgEarthNet.uav[22] utilizationEnergyOverdrawMission 0
scalar OsgEarthNet.uav[22] utilizationEnergyOverdrawMaintenance 0
scalar OsgEarthNet.uav[22] utilizationCountMissions 54
scalar OsgEarthNet.uav[22] utilizationCountManeuversMission 938
scalar OsgEarthNet.uav[22] utilizationCountManeuversMaintenance 107
scalar OsgEarthNet.uav[22] utilizationCountChargeState 54
scalar OsgEarthNet.uav[22] utilizationCountOverdrawnAfterMission 0
scalar OsgEarthNet.uav[22] utilizationCountIdleState 53
scalar OsgEarthNet.uav[22] utilizationFail 0
scalar OsgEarthNet.uav[22] simulationTime 259200
scalar OsgEarthNet.uav[23] utilizationSecMission 24101.213013301
scalar OsgEarthNet.uav[23] utilizationSecMaintenance 22588.410469163
scalar OsgEarthNet.uav[23] utilizationSecCharge 172230
scalar OsgEarthNet.uav[23] utilizationSecIdle 40280.375517537
scalar OsgEarthNet.uav[23] utilizationEnergyMission 116691.83682251
scalar OsgEarthNet.uav[23] utilizationEnergyMaintenance 104764.80804825
scalar OsgEarthNet.uav[23] utilizationEnergyCharge 224448.73876953
scalar OsgEarthNet.uav[23] utilizationEnergyOverdrawMission 0
scalar OsgEarthNet.uav[23] utilizationEnergyOverdrawMaintenance 0
scalar OsgEarthNet.uav[23] utilizationCountMissions 51
scalar OsgEarthNet.uav[23] utilizationCountManeuversMission 810
scalar OsgEarthNet.uav[23] utilizationCountManeuversMaintenance 102
scalar OsgEarthNet.uav[23] utilizationCountChargeState 51
scalar OsgEarthNet.uav[23] utilizationCountOverdrawnAfterMission 0
scalar OsgEarthNet.uav[23] utilizationCountIdleState 52
scalar OsgEarthNet.uav[23] utilizationFail 0
scalar OsgEarthNet.uav[23] simulationTime 259200
scalar OsgEarthNet.uav[24] utilizationSecMission 27396.185819114
scalar OsgEarthNet.uav[24] utilizationSecMaintenance 22177.179367726
scalar OsgEarthNet.uav[24] utilizationSecCharge 178065.57796614
scalar OsgEarthNet.uav[24] utilizationSecIdle 31561.055847023
scalar OsgEarthNet.uav[24] utilizationEnergyMission 131982.50095367
scalar OsgEarthNet.uav[24] utilizationEnergyMaintenance 104268.52381516
scalar OsgEarthNet.uav[24] utilizationEnergyCharge 234275.79528809
scalar OsgEarthNet.uav[24] utilizationEnergyOverdrawMission 0
scalar OsgEarthNet.uav[24] utilizationEnergyOverdrawMaintenance 0
scalar OsgEarthNet.uav[24] utilizationCountMissions 53
scalar OsgEarthNet.uav[24] utilizationCountManeuversMission 835
scalar OsgEarthNet.uav[24] utilizationCountManeuversMaintenance 106
scalar OsgEarthNet.uav[24] utilizationCountChargeState 53
scalar OsgEarthNet.uav[24] utilizationCountOverdrawnAfterMission 0
scalar OsgEarthNet.uav[24] utilizationCountIdleState 53
scalar OsgEarthNet.uav[24] utilizationFail 0
scalar OsgEarthNet.uav[24] simulationTime 259200
scalar OsgEarthNet.uav[25] utilizationSecMission 19851.839631262
scalar OsgEarthNet.uav[25] utilizationSecMaintenance 14676.155368738
scalar OsgEarthNet.uav[25] utilizationSecCharge 122570
scalar OsgEarthNet.uav[25] utilizationSecIdle 102102.004
scalar OsgEarthNet.uav[25] utilizationEnergyMission 94709.988691057
scalar OsgEarthNet.uav[25] utilizationEnergyMaintenance 67965.178436279
scalar OsgEarthNet.uav[25] utilizationEnergyCharge 161027.76586914
scalar OsgEarthNet.uav[25] utilizationEnergyOverdrawMission 0
scalar OsgEarthNet.uav[25] utilizationEnergyOverdrawMaintenance 0
scalar OsgEarthNet.uav[25] utilizationCountMissions 36
scalar OsgEarthNet.uav[25] utilizationCountManeuversMission 520
scalar OsgEarthNet.uav[25] utilizationCountManeuversMaintenance 73
scalar OsgEarthNet.uav[25] utilizationCountChargeState 36
scalar OsgEarthNet.uav[25] utilizationCountOverdrawnAfterMission 0
scalar OsgEarthNet.uav[25] utilizationCountIdleState 37
scalar OsgEarthNet.uav[25] utilizationFail 0
scalar OsgEarthNet.uav[25] simulationTime 259200
scalar OsgEarthNet.uav[26] utilizationSecMission 26901.601322926
scalar OsgEarthNet.uav[26] utilizationSecMaintenance 23282.274654961
scalar OsgEarthNet.uav[26] utilizationSecCharge 180324.12002211
scalar OsgEarthNet.uav[26] utilizationSecIdle 28692.003
scalar OsgEarthNet.uav[26] utilizationEnergyMission 128660.99116516
scalar OsgEarthNet.uav[26] utilizationEnergyMaintenance 108516.12171555
scalar OsgEarthNet.uav[26] utilizationEnergyCharge 236393.13464355
scalar OsgEarthNet.uav[26] utilizationEnergyOverdrawMission 0
scalar OsgEarthNet.uav[26] utilizationEnergyOverdrawMaintenance 0
scalar OsgEarthNet.uav[26] utilizationCountMissions 54
scalar OsgEarthNet.uav[26] utilizationCountManeuversMission 870
scalar OsgEarthNet.uav[26] utilizationCountManeuversMaintenance 108
scalar OsgEarthNet.uav[26] utilizationCountChargeState 54
scalar OsgEarthNet.uav[26] utilizationCountOverdrawnAfterMission 0
scalar OsgEarthNet.uav[26] utilizationCountIdleState 54
scalar OsgEarthNet.uav[26] utilizationFail 0
scalar OsgEarthNet.uav[26] simulationTime 259200
scalar OsgEarthNet.uav[27] utilizationSecMission 28082.508888861
scalar OsgEarthNet.uav[27] utilizationSecMaintenance 22040.576946089
scalar OsgEarthNet.uav[27] utilizationSecCharge 178774.90916505
scalar OsgEarthNet.uav[27] utilizationSecIdle 30302.004
scalar OsgEarthNet.uav[27] utilizationEnergyMission 136248.6479454
scalar OsgEarthNet.uav[27] utilizationEnergyMaintenance 101504.48044968
scalar OsgEarthNet.uav[27] utilizationEnergyCharge 235737.30859375
scalar OsgEarthNet.uav[27] utilizationEnergyOverdrawMission 0
scalar OsgEarthNet.uav[27] utilizationEnergyOverdrawMaintenance 0
scalar OsgEarthNet.uav[27] utilizationCountMissions 53
scalar OsgEarthNet.uav[27] utilizationCountManeuversMission 886
scalar OsgEarthNet.uav[27] utilizationCountManeuversMaintenance 106
scalar OsgEarthNet.uav[27] utilizationCountChargeState 53
scalar OsgEarthNet.uav[27] utilizationCountOverdrawnAfterMission 0
scalar OsgEarthNet.uav[27] utilizationCountIdleState 53
scalar OsgEarthNet.uav[27] utilizationFail 0
scalar OsgEarthNet.uav[27] simulationTime 259200
scalar OsgEarthNet.uav[28] utilizationSecMission 19142.558510356
scalar OsgEarthNet.uav[28] utilizationSecMaintenance 18498.990403476
scalar OsgEarthNet.uav[28] utilizationSecCharge 132386.44508617
scalar OsgEarthNet.uav[28] utilizationSecIdle 89172.005
scalar OsgEarthNet.uav[28] utilizationEnergyMission 91692.817966461
scalar OsgEarthNet.uav[28] utilizationEnergyMaintenance 85189.181026459
scalar OsgEarthNet.uav[28] utilizationEnergyCharge 173248.03936768
scalar OsgEarthNet.uav[28] utilizationEnergyOverdrawMission 0
scalar OsgEarthNet.uav[28] utilizationEnergyOverdrawMaintenance 0
scalar OsgEarthNet.uav[28] utilizationCountMissions 40
scalar OsgEarthNet.uav[28] utilizationCountManeuversMission 581
scalar OsgEarthNet.uav[28] utilizationCountManeuversMaintenance 80
scalar OsgEarthNet.uav[28] utilizationCountChargeState 40
scalar OsgEarthNet.uav[28] utilizationCountOverdrawnAfterMission 0
scalar OsgEarthNet.uav[28] utilizationCountIdleState 40
scalar OsgEarthNet.uav[28] utilizationFail 0
scalar OsgEarthNet.uav[28] simulationTime 259200
scalar OsgEarthNet.uav[29] utilizationSecMission 26738.728408049
scalar OsgEarthNet.uav[29] utilizationSecMaintenance 21573.935696604
scalar OsgEarthNet.uav[29] utilizationSecCharge 174800
scalar OsgEarthNet.uav[29] utilizationSecIdle 36087.334895347
scalar OsgEarthNet.uav[29] utilizationEnergyMission 130115.93037415
scalar OsgEarthNet.uav[29] utilizationEnergyMaintenance 100352.61199188
scalar OsgEarthNet.uav[29] utilizationEnergyCharge 230222.36401367
scalar OsgEarthNet.uav[29] utilizationEnergyOverdrawMission 0
scalar OsgEarthNet.uav[29] utilizationEnergyOverdrawMaintenance 0
scalar OsgEarthNet.uav[29] utilizationCountMissions 51
scalar OsgEarthNet.uav[29] utilizationCountManeuversMission 826
scalar OsgEarthNet.uav[29] utilizationCountManeuversMaintenance 102
scalar OsgEarthNet.uav[29] utilizationCountChargeState 51
scalar OsgEarthNet.uav[29] utilizationCountOverdrawnAfterMission 0
scalar OsgEarthNet.uav[29] utilizationCountIdleState 52
scalar OsgEarthNet.uav[29] utilizationFail 0
scalar OsgEarthNet.uav[29] simulationTime 259200
scalar OsgEarthNet.uav[30] utilizationSecMission 4930.3289232619
scalar OsgEarthNet.uav[30] utilizationSecMaintenance 4659.4198256603
scalar OsgEarthNet.uav[30] utilizationSecCharge 34550
scalar OsgEarthNet.uav[30] utilizationSecIdle 215060.25025108
scalar OsgEarthNet.uav[30] utilizationEnergyMission 24123.786010742
scalar OsgEarthNet.uav[30] utilizationEnergyMaintenance 21636.324363708
scalar OsgEarthNet.uav[30] utilizationEnergyCharge 45349.760498047
scalar OsgEarthNet.uav[30] utilizationEnergyOverdrawMission 0
scalar OsgEarthNet.uav[30] utilizationEnergyOverdrawMaintenance 0
scalar OsgEarthNet.uav[30] utilizationCountMissions 10
scalar OsgEarthNet.uav[30] utilizationCountManeuversMission 137
scalar OsgEarthNet.uav[30] utilizationCountManeuversMaintenance 20
scalar OsgEarthNet.uav[30] utilizationCountChargeState 10
scalar OsgEarthNet.uav[30] utilizationCountOverdrawnAfterMission 0
scalar OsgEarthNet.uav[30] utilizationCountIdleState 11
scalar OsgEarthNet.uav[30] utilizationFail 0
scalar OsgEarthNet.uav[30] simulationTime 259200
scalar OsgEarthNet.uav[31] utilizationSecMission 756.51428501943
scalar OsgEarthNet.uav[31] utilizationSecMaintenance 968.90852681991
scalar OsgEarthNet.uav[31] utilizationSecCharge 6460
scalar OsgEarthNet.uav[31] utilizationSecIdle 251014.57618816
scalar OsgEarthNet.uav[31] utilizationEnergyMission 3835.3941078186
scalar OsgEarthNet.uav[31] utilizationEnergyMaintenance 4492.3953475952
scalar OsgEarthNet.uav[31] utilizationEnergyCharge 8149.0639648438
scalar OsgEarthNet.uav[31] utilizationEnergyOverdrawMission 0
scalar OsgEarthNet.uav[31] utilizationEnergyOverdrawMaintenance 0
scalar OsgEarthNet.uav[31] utilizationCountMissions 2
scalar OsgEarthNet.uav[31] utilizationCountManeuversMission 25
scalar OsgEarthNet.uav[31] utilizationCountManeuversMaintenance 4
scalar OsgEarthNet.uav[31] utilizationCountChargeState 2
scalar OsgEarthNet.uav[31] utilizationCountOverdrawnAfterMission 0
scalar OsgEarthNet.uav[31] utilizationCountIdleState 3
scalar OsgEarthNet.uav[31] utilizationFail 0
scalar OsgEarthNet.uav[31] simulationTime 259200
scalar OsgEarthNet.uav[32] utilizationSecMission 26304.734401968
scalar OsgEarthNet.uav[32] utilizationSecMaintenance 21392.377533266
scalar OsgEarthNet.uav[32] utilizationSecCharge 169063.71195436
scalar OsgEarthNet.uav[32] utilizationSecIdle 42439.175110411
scalar OsgEarthNet.uav[32] utilizationEnergyMission 126938.43294525
scalar OsgEarthNet.uav[32] utilizationEnergyMaintenance 99367.055538177
scalar OsgEarthNet.uav[32] utilizationEnergyCharge 221271.60314941
scalar OsgEarthNet.uav[32] utilizationEnergyOverdrawMission 0
scalar OsgEarthNet.uav[32] utilizationEnergyOverdrawMaintenance 0
scalar OsgEarthNet.uav[32] utilizationCountMissions 51
scalar OsgEarthNet.uav[32] utilizationCountManeuversMission 777
scalar OsgEarthNet.uav[32] utilizationCountManeuversMaintenance 102
scalar OsgEarthNet.uav[32] utilizationCountChargeState 51
scalar OsgEarthNet.uav[32] utilizationCountOverdrawnAfterMission 0
scalar OsgEarthNet.uav[32] utilizationCountIdleState 51
scalar OsgEarthNet.uav[32] utilizationFail 0
scalar OsgEarthNet.uav[32] simulationTime 259200
scalar OsgEarthNet.uav[33] utilizationSecMission 25129.855373098
scalar OsgEarthNet.uav[33] utilizationSecMaintenance 22908.137626902
scalar OsgEarthNet.uav[33] utilizationSecCharge 173070
scalar OsgEarthNet.uav[33] utilizationSecIdle 38092.006
scalar OsgEarthNet.uav[33] utilizationEnergyMission 123808.33530673
scalar OsgEarthNet.uav[33] utilizationEnergyMaintenance 106081.28332901
scalar OsgEarthNet.uav[33] utilizationEnergyCharge 226735.96313477
scalar OsgEarthNet.uav[33] utilizationEnergyOverdrawMission 0
scalar OsgEarthNet.uav[33] utilizationEnergyOverdrawMaintenance 0
scalar OsgEarthNet.uav[33] utilizationCountMissions 51
scalar OsgEarthNet.uav[33] utilizationCountManeuversMission 840
scalar OsgEarthNet.uav[33] utilizationCountManeuversMaintenance 103
scalar OsgEarthNet.uav[33] utilizationCountChargeState 51
scalar OsgEarthNet.uav[33] utilizationCountOverdrawnAfterMission 0
scalar OsgEarthNet.uav[33] utilizationCountIdleState 52
scalar OsgEarthNet.uav[33] utilizationFail 0
scalar OsgEarthNet.uav[33] simulationTime 259200
scalar OsgEarthNet.uav[34] utilizationSecMission 25216.794610737
scalar OsgEarthNet.uav[34] utilizationSecMaintenance 22020.661564393
scalar OsgEarthNet.uav[34] utilizationSecCharge 169090
scalar OsgEarthNet.uav[34] utilizationSecIdle 42872.542824869
scalar OsgEarthNet.uav[34] utilizationEnergyMission 119115.08324088
scalar OsgEarthNet.uav[34] utilizationEnergyMaintenance 102493.12726974
scalar OsgEarthNet.uav[34] utilizationEnergyCharge 221512.52832031
scalar OsgEarthNet.uav[34] utilizationEnergyOverdrawMission 0
scalar OsgEarthNet.uav[34] utilizationEnergyOverdrawMaintenance 0
scalar OsgEarthNet.uav[34] utilizationCountMissions 50
scalar OsgEarthNet.uav[34] utilizationCountManeuversMission 786
scalar OsgEarthNet.uav[34] utilizationCountManeuversMaintenance 101
scalar OsgEarthNet.uav[34] utilizationCountChargeState 50
scalar OsgEarthNet.uav[34] utilizationCountOverdrawnAfterMission 0
scalar OsgEarthNet.uav[34] utilizationCountIdleState 51
scalar OsgEarthNet.uav[34] utilizationFail 0
scalar OsgEarthNet.uav[34] simulationTime 259200
scalar OsgEarthNet.uav[35] utilizationSecMission 26453.133765761
scalar OsgEarthNet.uav[35] utilizationSecMaintenance 24456.452523381
scalar OsgEarthNet.uav[35] utilizationSecCharge 182558.41271086
scalar OsgEarthNet.uav[35] utilizationSecIdle 25732
scalar OsgEarthNet.uav[35] utilizationEnergyMission 127429.46076035
scalar OsgEarthNet.uav[35] utilizationEnergyMaintenance 112858.2427597
scalar OsgEarthNet.uav[35] utilizationEnergyCharge 240144.70776367
scalar OsgEarthNet.uav[35] utilizationEnergyOverdrawMission 0
scalar OsgEarthNet.uav[35] utilizationEnergyOverdrawMaintenance 127.58051300049
scalar OsgEarthNet.uav[35] utilizationCountMissions 54
scalar OsgEarthNet.uav[35] utilizationCountManeuversMission 775
scalar OsgEarthNet.uav[35] utilizationCountManeuversMaintenance 107
scalar OsgEarthNet.uav[35] utilizationCountChargeState 54
scalar OsgEarthNet.uav[35] utilizationCountOverdrawnAfterMission 1
scalar OsgEarthNet.uav[35] utilizationCountIdleState 54
scalar OsgEarthNet.uav[35] utilizationFail 0
scalar OsgEarthNet.uav[35] simulationTime 259200
scalar OsgEarthNet.uav[36] utilizationSecMission 24427.22122359
scalar OsgEarthNet.uav[36] utilizationSecMaintenance 24829.873718694
scalar OsgEarthNet.uav[36] utilizationSecCharge 180410.89905772
scalar OsgEarthNet.uav[36] utilizationSecIdle 29532.005
scalar OsgEarthNet.uav[36] utilizationEnergyMission 119212.74227524
scalar OsgEarthNet.uav[36] utilizationEnergyMaintenance 116389.64892578
scalar OsgEarthNet.uav[36] utilizationEnergyCharge 237400.37573242
scalar OsgEarthNet.uav[36] utilizationEnergyOverdrawMission 0
scalar OsgEarthNet.uav[36] utilizationEnergyOverdrawMaintenance 0
scalar OsgEarthNet.uav[36] utilizationCountMissions 53
scalar OsgEarthNet.uav[36] utilizationCountManeuversMission 841
scalar OsgEarthNet.uav[36] utilizationCountManeuversMaintenance 106
scalar OsgEarthNet.uav[36] utilizationCountChargeState 53
scalar OsgEarthNet.uav[36] utilizationCountOverdrawnAfterMission 0
scalar OsgEarthNet.uav[36] utilizationCountIdleState 53
scalar OsgEarthNet.uav[36] utilizationFail 0
scalar OsgEarthNet.uav[36] simulationTime 259200
scalar OsgEarthNet.uav[37] utilizationSecMission 23037.154423984
scalar OsgEarthNet.uav[37] utilizationSecMaintenance 20084.022183042
scalar OsgEarthNet.uav[37] utilizationSecCharge 154136.81139297
scalar OsgEarthNet.uav[37] utilizationSecIdle 61942.011
scalar OsgEarthNet.uav[37] utilizationEnergyMission 112361.87989426
scalar OsgEarthNet.uav[37] utilizationEnergyMaintenance 93707.191589355
scalar OsgEarthNet.uav[37] utilizationEnergyCharge 201020.28417969
scalar OsgEarthNet.uav[37] utilizationEnergyOverdrawMission 0
scalar OsgEarthNet.uav[37] utilizationEnergyOverdrawMaintenance 0
scalar OsgEarthNet.uav[37] utilizationCountMissions 47
scalar OsgEarthNet.uav[37] utilizationCountManeuversMission 719
scalar OsgEarthNet.uav[37] utilizationCountManeuversMaintenance 94
scalar OsgEarthNet.uav[37] utilizationCountChargeState 47
scalar OsgEarthNet.uav[37] utilizationCountOverdrawnAfterMission 0
scalar OsgEarthNet.uav[37] utilizationCountIdleState 47
scalar OsgEarthNet.uav[37] utilizationFail 0
scalar OsgEarthNet.uav[37] simulationTime 259200
scalar OsgEarthNet.uav[38] utilizationSecMission 11442.440009389
scalar OsgEarthNet.uav[38] utilizationSecMaintenance 10525.199146269
scalar OsgEarthNet.uav[38] utilizationSecCharge 78110
scalar OsgEarthNet.uav[38] utilizationSecIdle 159122.35984434
scalar OsgEarthNet.uav[38] utilizationEnergyMission 54455.474319458
scalar OsgEarthNet.uav[38] utilizationEnergyMaintenance 47560.587299347
scalar OsgEarthNet.uav[38] utilizationEnergyCharge 102328.08496094
scalar OsgEarthNet.uav[38] utilizationEnergyOverdrawMission 0
scalar OsgEarthNet.uav[38] utilizationEnergyOverdrawMaintenance 128.9201965332
scalar OsgEarthNet.uav[38] utilizationCountMissions 23
scalar OsgEarthNet.uav[38] utilizationCountManeuversMission 368
scalar OsgEarthNet.uav[38] utilizationCountManeuversMaintenance 46
scalar OsgEarthNet.uav[38] utilizationCountChargeState 23
scalar OsgEarthNet.uav[38] utilizationCountOverdrawnAfterMission 1
scalar OsgEarthNet.uav[38] utilizationCountIdleState 24
scalar OsgEarthNet.uav[38] utilizationFail 0
scalar OsgEarthNet.uav[38] simulationTime 259200
scalar OsgEarthNet.uav[39] utilizationSecMission 320
scalar OsgEarthNet.uav[39] utilizationSecMaintenance 524.03331269068
scalar OsgEarthNet.uav[39] utilizationSecCharge 3310
scalar OsgEarthNet.uav[39] utilizationSecIdle 255045.96568731
scalar OsgEarthNet.uav[39] utilizationEnergyMission 1871.0858078003
scalar OsgEarthNet.uav[39] utilizationEnergyMaintenance 2556.4173698425
scalar OsgEarthNet.uav[39] utilizationEnergyCharge 4236.8022460938
scalar OsgEarthNet.uav[39] utilizationEnergyOverdrawMission 0
scalar OsgEarthNet.uav[39] utilizationEnergyOverdrawMaintenance 0
scalar OsgEarthNet.uav[39] utilizationCountMissions 1
scalar OsgEarthNet.uav[39] utilizationCountManeuversMission 16
scalar OsgEarthNet.uav[39] utilizationCountManeuversMaintenance 2
scalar OsgEarthNet.uav[39] utilizationCountChargeState 1
scalar OsgEarthNet.uav[39] utilizationCountOverdrawnAfterMission 0
scalar OsgEarthNet.uav[39] utilizationCountIdleState 2
scalar OsgEarthNet.uav[39] utilizationFail 0
scalar OsgEarthNet.uav[39] simulationTime 259200
scalar OsgEarthNet.uav[40] utilizationSecMission 313.66140879233
scalar OsgEarthNet.uav[40] utilizationSecMaintenance 473.03391658586
scalar OsgEarthNet.uav[40] utilizationSecCharge 3040
scalar OsgEarthNet.uav[40] utilizationSecIdle 255373.30367462
scalar OsgEarthNet.uav[40] utilizationEnergyMission 1518.908203125
scalar OsgEarthNet.uav[40] utilizationEnergyMaintenance 2173.5642318726
scalar OsgEarthNet.uav[40] utilizationEnergyCharge 3692.4682617188
scalar OsgEarthNet.uav[40] utilizationEnergyOverdrawMission 0
scalar OsgEarthNet.uav[40] utilizationEnergyOverdrawMaintenance 0
scalar OsgEarthNet.uav[40] utilizationCountMissions 1
scalar OsgEarthNet.uav[40] utilizationCountManeuversMission 5
scalar OsgEarthNet.uav[40] utilizationCountManeuversMaintenance 2
scalar OsgEarthNet.uav[40] utilizationCountChargeState 1
scalar OsgEarthNet.uav[40] utilizationCountOverdrawnAfterMission 0
scalar OsgEarthNet.uav[40] utilizationCountIdleState 2
scalar OsgEarthNet.uav[40] utilizationFail 0
scalar OsgEarthNet.uav[40] simulationTime 259200
scalar OsgEarthNet.uav[41] utilizationSecMission 23087.344780849
scalar OsgEarthNet.uav[41] utilizationSecMaintenance 21652.927108171
scalar OsgEarthNet.uav[41] utilizationSecCharge 160879.24960496
scalar OsgEarthNet.uav[41] utilizationSecIdle 53580.477506018
scalar OsgEarthNet.uav[41] utilizationEnergyMission 109942.15093231
scalar OsgEarthNet.uav[41] utilizationEnergyMaintenance 102024.29043961
scalar OsgEarthNet.uav[41] utilizationEnergyCharge 212195.85961914
scalar OsgEarthNet.uav[41] utilizationEnergyOverdrawMission 0
scalar OsgEarthNet.uav[41] utilizationEnergyOverdrawMaintenance 524.84570503235
scalar OsgEarthNet.uav[41] utilizationCountMissions 47
scalar OsgEarthNet.uav[41] utilizationCountManeuversMission 675
scalar OsgEarthNet.uav[41] utilizationCountManeuversMaintenance 94
scalar OsgEarthNet.uav[41] utilizationCountChargeState 47
scalar OsgEarthNet.uav[41] utilizationCountOverdrawnAfterMission 2
scalar OsgEarthNet.uav[41] utilizationCountIdleState 47
scalar OsgEarthNet.uav[41] utilizationFail 0
scalar OsgEarthNet.uav[41] simulationTime 259200
scalar OsgEarthNet.uav[42] utilizationSecMission 22963.042119619
scalar OsgEarthNet.uav[42] utilizationSecMaintenance 22294.32637997
scalar OsgEarthNet.uav[42] utilizationSecCharge 161146.28027959
scalar OsgEarthNet.uav[42] utilizationSecIdle 52796.350220821
scalar OsgEarthNet.uav[42] utilizationEnergyMission 108761.48712921
scalar OsgEarthNet.uav[42] utilizationEnergyMaintenance 103446.84180832
scalar OsgEarthNet.uav[42] utilizationEnergyCharge 211819.47387695
scalar OsgEarthNet.uav[42] utilizationEnergyOverdrawMission 0
scalar OsgEarthNet.uav[42] utilizationEnergyOverdrawMaintenance 0
scalar OsgEarthNet.uav[42] utilizationCountMissions 48
scalar OsgEarthNet.uav[42] utilizationCountManeuversMission 667
scalar OsgEarthNet.uav[42] utilizationCountManeuversMaintenance 96
scalar OsgEarthNet.uav[42] utilizationCountChargeState 48
scalar OsgEarthNet.uav[42] utilizationCountOverdrawnAfterMission 0
scalar OsgEarthNet.uav[42] utilizationCountIdleState 48
scalar OsgEarthNet.uav[42] utilizationFail 0
scalar OsgEarthNet.uav[42] simulationTime 259200
scalar OsgEarthNet.uav[43] utilizationSecMission 26744.492343087
scalar OsgEarthNet.uav[43] utilizationSecMaintenance 20540.89959932
scalar OsgEarthNet.uav[43] utilizationSecCharge 171680
scalar OsgEarthNet.uav[43] utilizationSecIdle 40234.607057593
scalar OsgEarthNet.uav[43] utilizationEnergyMission 133561.9199028
scalar OsgEarthNet.uav[43] utilizationEnergyMaintenance 95358.648921967
scalar OsgEarthNet.uav[43] utilizationEnergyCharge 225744.89404297
scalar OsgEarthNet.uav[43] utilizationEnergyOverdrawMission 0
scalar OsgEarthNet.uav[43] utilizationEnergyOverdrawMaintenance 0
scalar OsgEarthNet.uav[43] utilizationCountMissions 50
scalar OsgEarthNet.uav[43] utilizationCountManeuversMission 904
scalar OsgEarthNet.uav[43] utilizationCountManeuversMaintenance 100
scalar OsgEarthNet.uav[43] utilizationCountChargeState 50
scalar OsgEarthNet.uav[43] utilizationCountOverdrawnAfterMission 0
scalar OsgEarthNet.uav[43] utilizationCountIdleState 51
scalar OsgEarthNet.uav[43] utilizationFail 0
scalar OsgEarthNet.uav[43] simulationTime 259200
scalar OsgEarthNet.uav[44] utilizationSecMission 27981.549648894
scalar OsgEarthNet.uav[44] utilizationSecMaintenance 22126.446351106
scalar OsgEarthNet.uav[44] utilizationSecCharge 181500
scalar OsgEarthNet.uav[44] utilizationSecIdle 27592.003
scalar OsgEarthNet.uav[44] utilizationEnergyMission 137961.55018234
scalar OsgEarthNet.uav[44] utilizationEnergyMaintenance 103948.38566553
scalar OsgEarthNet.uav[44] utilizationEnergyCharge 238352.24584961
scalar OsgEarthNet.uav[44] utilizationEnergyOverdrawMission 0
scalar OsgEarthNet.uav[44] utilizationEnergyOverdrawMaintenance 0
scalar OsgEarthNet.uav[44] utilizationCountMissions 53
scalar OsgEarthNet.uav[44] utilizationCountManeuversMission 839
scalar OsgEarthNet.uav[44] utilizationCountManeuversMaintenance 107
scalar OsgEarthNet.uav[44] utilizationCountChargeState 53
scalar OsgEarthNet.uav[44] utilizationCountOverdrawnAfterMission 0
scalar OsgEarthNet.uav[44] utilizationCountIdleState 53
scalar OsgEarthNet.uav[44] utilizationFail 0
scalar OsgEarthNet.uav[44] simulationTime 259200
scalar OsgEarthNet.uav[45] utilizationSecMission 23291.743545032
scalar OsgEarthNet.uav[45] utilizationSecMaintenance 23446.802496251
scalar OsgEarthNet.uav[45] utilizationSecCharge 170620
scalar OsgEarthNet.uav[45] utilizationSecIdle 41841.452958717
scalar OsgEarthNet.uav[45] utilizationEnergyMission 115162.92136002
scalar OsgEarthNet.uav[45] utilizationEnergyMaintenance 109777.01632001
scalar OsgEarthNet.uav[45] utilizationEnergyCharge 224321.66088867
scalar OsgEarthNet.uav[45] utilizationEnergyOverdrawMission 0
scalar OsgEarthNet.uav[45] utilizationEnergyOverdrawMaintenance 0
scalar OsgEarthNet.uav[45] utilizationCountMissions 50
scalar OsgEarthNet.uav[45] utilizationCountManeuversMission 764
scalar OsgEarthNet.uav[45] utilizationCountManeuversMaintenance 101
scalar OsgEarthNet.uav[45] utilizationCountChargeState 50
scalar OsgEarthNet.uav[45] utilizationCountOverdrawnAfterMission 0
scalar OsgEarthNet.uav[45] utilizationCountIdleState 51
scalar OsgEarthNet.uav[45] utilizationFail 0
scalar OsgEarthNet.uav[45] simulationTime 259200
scalar OsgEarthNet.uav[46] utilizationSecMission 14442.66962305
scalar OsgEarthNet.uav[46] utilizationSecMaintenance 12050.762798395
scalar OsgEarthNet.uav[46] utilizationSecCharge 96090
scalar OsgEarthNet.uav[46] utilizationSecIdle 136616.56657856
scalar OsgEarthNet.uav[46] utilizationEnergyMission 70896.137645721
scalar OsgEarthNet.uav[46] utilizationEnergyMaintenance 55562.138641357
scalar OsgEarthNet.uav[46] utilizationEnergyCharge 125762.05712891
scalar OsgEarthNet.uav[46] utilizationEnergyOverdrawMission 0
scalar OsgEarthNet.uav[46] utilizationEnergyOverdrawMaintenance 0
scalar OsgEarthNet.uav[46] utilizationCountMissions 28
scalar OsgEarthNet.uav[46] utilizationCountManeuversMission 411
scalar OsgEarthNet.uav[46] utilizationCountManeuversMaintenance 56
scalar OsgEarthNet.uav[46] utilizationCountChargeState 28
scalar OsgEarthNet.uav[46] utilizationCountOverdrawnAfterMission 0
scalar OsgEarthNet.uav[46] utilizationCountIdleState 29
scalar OsgEarthNet.uav[46] utilizationFail 0
scalar OsgEarthNet.uav[46] simulationTime 259200
scalar OsgEarthNet.uav[47] utilizationSecMission 29062.852492917
scalar OsgEarthNet.uav[47] utilizationSecMaintenance 22449.633989636
scalar OsgEarthNet.uav[47] utilizationSecCharge 184489.05624027
scalar OsgEarthNet.uav[47] utilizationSecIdle 23198.456277181
scalar OsgEarthNet.uav[47] utilizationEnergyMission 140713.5580864
scalar OsgEarthNet.uav[47] utilizationEnergyMaintenance 104579.66555786
scalar OsgEarthNet.uav[47] utilizationEnergyCharge 243746.61547852
scalar OsgEarthNet.uav[47] utilizationEnergyOverdrawMission 0
scalar OsgEarthNet.uav[47] utilizationEnergyOverdrawMaintenance 215.5111541748
scalar OsgEarthNet.uav[47] utilizationCountMissions 54
scalar OsgEarthNet.uav[47] utilizationCountManeuversMission 847
scalar OsgEarthNet.uav[47] utilizationCountManeuversMaintenance 108
scalar OsgEarthNet.uav[47] utilizationCountChargeState 54
scalar OsgEarthNet.uav[47] utilizationCountOverdrawnAfterMission 1
scalar OsgEarthNet.uav[47] utilizationCountIdleState 54
scalar OsgEarthNet.uav[47] utilizationFail 0
scalar OsgEarthNet.uav[47] simulationTime 259200
scalar OsgEarthNet.uav[48] utilizationSecMission 22947.440543537
scalar OsgEarthNet.uav[48] utilizationSecMaintenance 22324.991971906
scalar OsgEarthNet.uav[48] utilizationSecCharge 163317.93540389
scalar OsgEarthNet.uav[48] utilizationSecIdle 50609.631080665
scalar OsgEarthNet.uav[48] utilizationEnergyMission 112118.06651306
scalar OsgEarthNet.uav[48] utilizationEnergyMaintenance 104467.12858582
scalar OsgEarthNet.uav[48] utilizationEnergyCharge 214704.21264648
scalar OsgEarthNet.uav[48] utilizationEnergyOverdrawMission 0
scalar OsgEarthNet.uav[48] utilizationEnergyOverdrawMaintenance 0
scalar OsgEarthNet.uav[48] utilizationCountMissions 49
scalar OsgEarthNet.uav[48] utilizationCountManeuversMission 809
scalar OsgEarthNet.uav[48] utilizationCountManeuversMaintenance 98
scalar OsgEarthNet.uav[48] utilizationCountChargeState 49
scalar OsgEarthNet.uav[48] utilizationCountOverdrawnAfterMission 0
scalar OsgEarthNet.uav[48] utilizationCountIdleState 49
scalar OsgEarthNet.uav[48] utilizationFail 0
scalar OsgEarthNet.uav[48] simulationTime 259200
scalar OsgEarthNet.uav[49] utilizationSecMission 5010.1060683574
scalar OsgEarthNet.uav[49] utilizationSecMaintenance 2671.708745818
scalar OsgEarthNet.uav[49] utilizationSecCharge 27340
scalar OsgEarthNet.uav[49] utilizationSecIdle 224178.18418582
scalar OsgEarthNet.uav[49] utilizationEnergyMission 23718.116081238
scalar OsgEarthNet.uav[49] utilizationEnergyMaintenance 12141.337596893
scalar OsgEarthNet.uav[49] utilizationEnergyCharge 36088.1015625
scalar OsgEarthNet.uav[49] utilizationEnergyOverdrawMission 0
scalar OsgEarthNet.uav[49] utilizationEnergyOverdrawMaintenance 0
scalar OsgEarthNet.uav[49] utilizationCountMissions 8
scalar OsgEarthNet.uav[49] utilizationCountManeuversMission 109
scalar OsgEarthNet.uav[49] utilizationCountManeuversMaintenance 16
scalar OsgEarthNet.uav[49] utilizationCountChargeState 8
scalar OsgEarthNet.uav[49] utilizationCountOverdrawnAfterMission 0
scalar OsgEarthNet.uav[49] utilizationCountIdleState 9
scalar OsgEarthNet.uav[49] utilizationFail 0
scalar OsgEarthNet.uav[49] simulationTime 259200
scalar OsgEarthNet.uav[50] utilizationSecMission 7250.6370438893
scalar OsgEarthNet.uav[50] utilizationSecMaintenance 6670.8296549716
scalar OsgEarthNet.uav[50] utilizationSecCharge 50020
scalar OsgEarthNet.uav[50] utilizationSecIdle 195258.53230114
scalar OsgEarthNet.uav[50] utilizationEnergyMission 35369.083580017
scalar OsgEarthNet.uav[50] utilizationEnergyMaintenance 30848.24206543
scalar OsgEarthNet.uav[50] utilizationEnergyCharge 65860.181640625
scalar OsgEarthNet.uav[50] utilizationEnergyOverdrawMission 0
scalar OsgEarthNet.uav[50] utilizationEnergyOverdrawMaintenance 0
scalar OsgEarthNet.uav[50] utilizationCountMissions 15
scalar OsgEarthNet.uav[50] utilizationCountManeuversMission 236
scalar OsgEarthNet.uav[50] utilizationCountManeuversMaintenance 30
scalar OsgEarthNet.uav[50] utilizationCountChargeState 15
scalar OsgEarthNet.uav[50] utilizationCountOverdrawnAfterMission 0
scalar OsgEarthNet.uav[50] utilizationCountIdleState 14
scalar OsgEarthNet.uav[50] utilizationFail 0
scalar OsgEarthNet.uav[50] simulationTime 259200
scalar OsgEarthNet.uav[51] utilizationSecMission 17578.909761478
scalar OsgEarthNet.uav[51] utilizationSecMaintenance 12390.334552
scalar OsgEarthNet.uav[51] utilizationSecCharge 108440
scalar OsgEarthNet.uav[51] utilizationSecIdle 120790.75468652
scalar OsgEarthNet.uav[51] utilizationEnergyMission 85363.529491425
scalar OsgEarthNet.uav[51] utilizationEnergyMaintenance 58525.615318298
scalar OsgEarthNet.uav[51] utilizationEnergyCharge 142267.25683594
scalar OsgEarthNet.uav[51] utilizationEnergyOverdrawMission 0
scalar OsgEarthNet.uav[51] utilizationEnergyOverdrawMaintenance 0
scalar OsgEarthNet.uav[51] utilizationCountMissions 32
scalar OsgEarthNet.uav[51] utilizationCountManeuversMission 553
scalar OsgEarthNet.uav[51] utilizationCountManeuversMaintenance 64
scalar OsgEarthNet.uav[51] utilizationCountChargeState 32
scalar OsgEarthNet.uav[51] utilizationCountOverdrawnAfterMission 0
scalar OsgEarthNet.uav[51] utilizationCountIdleState 32
scalar OsgEarthNet.uav[51] utilizationFail 0
scalar OsgEarthNet.uav[51] simulationTime 259200
scalar OsgEarthNet.uav[52] utilizationSecMission 23983.511062561
scalar OsgEarthNet.uav[52] utilizationSecMaintenance 25157.471599375
scalar OsgEarthNet.uav[52] utilizationSecCharge 174599.79672415
scalar OsgEarthNet.uav[52] utilizationSecIdle 35459.219613916
scalar OsgEarthNet.uav[52] utilizationEnergyMission 116181.98012924
scalar OsgEarthNet.uav[52] utilizationEnergyMaintenance 115873.57951355
scalar OsgEarthNet.uav[52] utilizationEnergyCharge 230243.72583008
scalar OsgEarthNet.uav[52] utilizationEnergyOverdrawMission 0
scalar OsgEarthNet.uav[52] utilizationEnergyOverdrawMaintenance 0
scalar OsgEarthNet.uav[52] utilizationCountMissions 52
scalar OsgEarthNet.uav[52] utilizationCountManeuversMission 732
scalar OsgEarthNet.uav[52] utilizationCountManeuversMaintenance 104
scalar OsgEarthNet.uav[52] utilizationCountChargeState 52
scalar OsgEarthNet.uav[52] utilizationCountOverdrawnAfterMission 0
scalar OsgEarthNet.uav[52] utilizationCountIdleState 51
scalar OsgEarthNet.uav[52] utilizationFail 0
scalar OsgEarthNet.uav[52] simulationTime 259200
scalar OsgEarthNet.uav[53] utilizationSecMission 27304.40112643
scalar OsgEarthNet.uav[53] utilizationSecMaintenance 21220.750812021
scalar OsgEarthNet.uav[53] utilizationSecCharge 176170
scalar OsgEarthNet.uav[53] utilizationSecIdle 34504.84706155
scalar OsgEarthNet.uav[53] utilizationEnergyMission 130372.98657227
scalar OsgEarthNet.uav[53] utilizationEnergyMaintenance 98832.150928497
scalar OsgEarthNet.uav[53] utilizationEnergyCharge 231390.51245117
scalar OsgEarthNet.uav[53] utilizationEnergyOverdrawMission 0
scalar OsgEarthNet.uav[53] utilizationEnergyOverdrawMaintenance 0
scalar OsgEarthNet.uav[53] utilizationCountMissions 52
scalar OsgEarthNet.uav[53] utilizationCountManeuversMission 831
scalar OsgEarthNet.uav[53] utilizationCountManeuversMaintenance 104
scalar OsgEarthNet.uav[53] utilizationCountChargeState 52
scalar OsgEarthNet.uav[53] utilizationCountOverdrawnAfterMission 0
scalar OsgEarthNet.uav[53] utilizationCountIdleState 50
scalar OsgEarthNet.uav[53] utilizationFail 0
scalar OsgEarthNet.uav[53] simulationTime 259200
scalar OsgEarthNet.uav[54] utilizationSecMission 19123.868540889
scalar OsgEarthNet.uav[54] utilizationSecMaintenance 17152.992573036
scalar OsgEarthNet.uav[54] utilizationSecCharge 129353.12995108
scalar OsgEarthNet.uav[54] utilizationSecIdle 93570.007934998
scalar OsgEarthNet.uav[54] utilizationEnergyMission 93861.097251892
scalar OsgEarthNet.uav[54] utilizationEnergyMaintenance 80037.697944641
scalar OsgEarthNet.uav[54] utilizationEnergyCharge 170235.14038086
scalar OsgEarthNet.uav[54] utilizationEnergyOverdrawMission 0
scalar OsgEarthNet.uav[54] utilizationEnergyOverdrawMaintenance 0
scalar OsgEarthNet.uav[54] utilizationCountMissions 39
scalar OsgEarthNet.uav[54] utilizationCountManeuversMission 626
scalar OsgEarthNet.uav[54] utilizationCountManeuversMaintenance 78
scalar OsgEarthNet.uav[54] utilizationCountChargeState 39
scalar OsgEarthNet.uav[54] utilizationCountOverdrawnAfterMission 0
scalar OsgEarthNet.uav[54] utilizationCountIdleState 36
scalar OsgEarthNet.uav[54] utilizationFail 0
scalar OsgEarthNet.uav[54] simulationTime 259200
scalar OsgEarthNet.uav[55] utilizationSecMission 22841.711551635
scalar OsgEarthNet.uav[55] utilizationSecMaintenance 20134.466001135
scalar OsgEarthNet.uav[55] utilizationSecCharge 154880
scalar OsgEarthNet.uav[55] utilizationSecIdle 61343.82144723
scalar OsgEarthNet.uav[55] utilizationEnergyMission 109180.20721436
scalar OsgEarthNet.uav[55] utilizationEnergyMaintenance 93148.250022888
scalar OsgEarthNet.uav[55] utilizationEnergyCharge 202454.11621094
scalar OsgEarthNet.uav[55] utilizationEnergyOverdrawMission 0
scalar OsgEarthNet.uav[55] utilizationEnergyOverdrawMaintenance 88.457138061523
scalar OsgEarthNet.uav[55] utilizationCountMissions 46
scalar OsgEarthNet.uav[55] utilizationCountManeuversMission 685
scalar OsgEarthNet.uav[55] utilizationCountManeuversMaintenance 92
scalar OsgEarthNet.uav[55] utilizationCountChargeState 46
scalar OsgEarthNet.uav[55] utilizationCountOverdrawnAfterMission 1
scalar OsgEarthNet.uav[55] utilizationCountIdleState 45
scalar OsgEarthNet.uav[55] utilizationFail 0
scalar OsgEarthNet.uav[55] simulationTime 259200
scalar OsgEarthNet.uav[56] utilizationSecMission 20394.378816414
scalar OsgEarthNet.uav[56] utilizationSecMaintenance 17198.869884001
scalar OsgEarthNet.uav[56] utilizationSecCharge 136070
scalar OsgEarthNet.uav[56] utilizationSecIdle 85536.750299585
scalar OsgEarthNet.uav[56] utilizationEnergyMission 99979.470134735
scalar OsgEarthNet.uav[56] utilizationEnergyMaintenance 80376.791584015
scalar OsgEarthNet.uav[56] utilizationEnergyCharge 179578.28442383
scalar OsgEarthNet.uav[56] utilizationEnergyOverdrawMission 0
scalar OsgEarthNet.uav[56] utilizationEnergyOverdrawMaintenance 0
scalar OsgEarthNet.uav[56] utilizationCountMissions 40
scalar OsgEarthNet.uav[56] utilizationCountManeuversMission 665
scalar OsgEarthNet.uav[56] utilizationCountManeuversMaintenance 80
scalar OsgEarthNet.uav[56] utilizationCountChargeState 40
scalar OsgEarthNet.uav[56] utilizationCountOverdrawnAfterMission 0
scalar OsgEarthNet.uav[56] utilizationCountIdleState 37
scalar OsgEarthNet.uav[56] utilizationFail 0
scalar OsgEarthNet.uav[56] simulationTime 259200
scalar OsgEarthNet.uav[57] utilizationSecMission 21249.508302424
scalar OsgEarthNet.uav[57] utilizationSecMaintenance 20568.481697576
scalar OsgEarthNet.uav[57] utilizationSecCharge 150770
scalar OsgEarthNet.uav[57] utilizationSecIdle 66612.009
scalar OsgEarthNet.uav[57] utilizationEnergyMission 102871.55566437
scalar OsgEarthNet.uav[57] utilizationEnergyMaintenance 95632.412559509
scalar OsgEarthNet.uav[57] utilizationEnergyCharge 197534.92041016
scalar OsgEarthNet.uav[57] utilizationEnergyOverdrawMission 0
scalar OsgEarthNet.uav[57] utilizationEnergyOverdrawMaintenance 0
scalar OsgEarthNet.uav[57] utilizationCountMissions 45
scalar OsgEarthNet.uav[57] utilizationCountManeuversMission 661
scalar OsgEarthNet.uav[57] utilizationCountManeuversMaintenance 91
scalar OsgEarthNet.uav[57] utilizationCountChargeState 45
scalar OsgEarthNet.uav[57] utilizationCountOverdrawnAfterMission 0
scalar OsgEarthNet.uav[57] utilizationCountIdleState 41
scalar OsgEarthNet.uav[57] utilizationFail 0
scalar OsgEarthNet.uav[57] simulationTime 259200
scalar OsgEarthNet.uav[58] utilizationSecMission 23528.701513726
scalar OsgEarthNet.uav[58] utilizationSecMaintenance 23954.59212387
scalar OsgEarthNet.uav[58] utilizationSecCharge 168110
scalar OsgEarthNet.uav[58] utilizationSecIdle 43606.705362404
scalar OsgEarthNet.uav[58] utilizationEnergyMission 114089.61755753
scalar OsgEarthNet.uav[58] utilizationEnergyMaintenance 112346.36635729
scalar OsgEarthNet.uav[58] utilizationEnergyCharge 223158.7109375
scalar OsgEarthNet.uav[58] utilizationEnergyOverdrawMission 0
scalar OsgEarthNet.uav[58] utilizationEnergyOverdrawMaintenance 0
scalar OsgEarthNet.uav[58] utilizationCountMissions 51
scalar OsgEarthNet.uav[58] utilizationCountManeuversMission 797
scalar OsgEarthNet.uav[58] utilizationCountManeuversMaintenance 102
scalar OsgEarthNet.uav[58] utilizationCountChargeState 50
scalar OsgEarthNet.uav[58] utilizationCountOverdrawnAfterMission 0
scalar OsgEarthNet.uav[58] utilizationCountIdleState 39
scalar OsgEarthNet.uav[58] utilizationFail 0
scalar OsgEarthNet.uav[58] simulationTime 259200
scalar OsgEarthNet.uav[59] utilizationSecMission 22510.987696899
scalar OsgEarthNet.uav[59] utilizationSecMaintenance 21069.532209017
scalar OsgEarthNet.uav[59] utilizationSecCharge 153047.47009408
scalar OsgEarthNet.uav[59] utilizationSecIdle 62572.009
scalar OsgEarthNet.uav[59] utilizationEnergyMission 108171.19610596
scalar OsgEarthNet.uav[59] utilizationEnergyMaintenance 96611.80500412
scalar OsgEarthNet.uav[59] utilizationEnergyCharge 201792.6539917
scalar OsgEarthNet.uav[59] utilizationEnergyOverdrawMission 0
scalar OsgEarthNet.uav[59] utilizationEnergyOverdrawMaintenance 70.936706542969
scalar OsgEarthNet.uav[59] utilizationCountMissions 46
scalar OsgEarthNet.uav[59] utilizationCountManeuversMission 691
scalar OsgEarthNet.uav[59] utilizationCountManeuversMaintenance 92
scalar OsgEarthNet.uav[59] utilizationCountChargeState 46
scalar OsgEarthNet.uav[59] utilizationCountOverdrawnAfterMission 1
scalar OsgEarthNet.uav[59] utilizationCountIdleState 41
scalar OsgEarthNet.uav[59] utilizationFail 0
scalar OsgEarthNet.uav[59] simulationTime 259200
scalar OsgEarthNet.uav[60] utilizationSecMission 23582.072873499
scalar OsgEarthNet.uav[60] utilizationSecMaintenance 22891.47668076
scalar OsgEarthNet.uav[60] utilizationSecCharge 165434.43944574
scalar OsgEarthNet.uav[60] utilizationSecIdle 47292.01
scalar OsgEarthNet.uav[60] utilizationEnergyMission 115620.9875946
scalar OsgEarthNet.uav[60] utilizationEnergyMaintenance 107181.73197556
scalar OsgEarthNet.uav[60] utilizationEnergyCharge 218079.46679688
scalar OsgEarthNet.uav[60] utilizationEnergyOverdrawMission 0
scalar OsgEarthNet.uav[60] utilizationEnergyOverdrawMaintenance 0
scalar OsgEarthNet.uav[60] utilizationCountMissions 50
scalar OsgEarthNet.uav[60] utilizationCountManeuversMission 778
scalar OsgEarthNet.uav[60] utilizationCountManeuversMaintenance 100
scalar OsgEarthNet.uav[60] utilizationCountChargeState 50
scalar OsgEarthNet.uav[60] utilizationCountOverdrawnAfterMission 0
scalar OsgEarthNet.uav[60] utilizationCountIdleState 42
scalar OsgEarthNet.uav[60] utilizationFail 0
scalar OsgEarthNet.uav[60] simulationTime 259200
scalar OsgEarthNet.uav[61] utilizationSecMission 25036.939351094
scalar OsgEarthNet.uav[61] utilizationSecMaintenance 23944.162215893
scalar OsgEarthNet.uav[61] utilizationSecCharge 174735.13838929
scalar OsgEarthNet.uav[61] utilizationSecIdle 35483.759043722
scalar OsgEarthNet.uav[61] utilizationEnergyMission 121993.96395493
scalar OsgEarthNet.uav[61] utilizationEnergyMaintenance 111056.91543198
scalar OsgEarthNet.uav[61] utilizationEnergyCharge 232386.94750977
scalar OsgEarthNet.uav[61] utilizationEnergyOverdrawMission 0
scalar OsgEarthNet.uav[61] utilizationEnergyOverdrawMaintenance 0
scalar OsgEarthNet.uav[61] utilizationCountMissions 52
scalar OsgEarthNet.uav[61] utilizationCountManeuversMission 775
scalar OsgEarthNet.uav[61] utilizationCountManeuversMaintenance 104
scalar OsgEarthNet.uav[61] utilizationCountChargeState 52
scalar OsgEarthNet.uav[61] utilizationCountOverdrawnAfterMission 0
scalar OsgEarthNet.uav[61] utilizationCountIdleState 41
scalar OsgEarthNet.uav[61] utilizationFail 0
scalar OsgEarthNet.uav[61] simulationTime 259200
scalar OsgEarthNet.uav[62] utilizationSecMission 26306.824414691
scalar OsgEarthNet.uav[62] utilizationSecMaintenance 23656.550784935
scalar OsgEarthNet.uav[62] utilizationSecCharge 178074.61680037
scalar OsgEarthNet.uav[62] utilizationSecIdle 31162.007
scalar OsgEarthNet.uav[62] utilizationEnergyMission 129223.8241272
scalar OsgEarthNet.uav[62] utilizationEnergyMaintenance 109098.06274414
scalar OsgEarthNet.uav[62] utilizationEnergyCharge 236806.15820312
scalar OsgEarthNet.uav[62] utilizationEnergyOverdrawMission 0
scalar OsgEarthNet.uav[62] utilizationEnergyOverdrawMaintenance 0
scalar OsgEarthNet.uav[62] utilizationCountMissions 53
scalar OsgEarthNet.uav[62] utilizationCountManeuversMission 779
scalar OsgEarthNet.uav[62] utilizationCountManeuversMaintenance 106
scalar OsgEarthNet.uav[62] utilizationCountChargeState 53
scalar OsgEarthNet.uav[62] utilizationCountOverdrawnAfterMission 0
scalar OsgEarthNet.uav[62] utilizationCountIdleState 44
scalar OsgEarthNet.uav[62] utilizationFail 0
scalar OsgEarthNet.uav[62] simulationTime 259200
scalar OsgEarthNet.uav[63] utilizationSecMission 26679.840644021
scalar OsgEarthNet.uav[63] utilizationSecMaintenance 22846.950159537
scalar OsgEarthNet.uav[63] utilizationSecCharge 178331.19519644
scalar OsgEarthNet.uav[63] utilizationSecIdle 31342.013
scalar OsgEarthNet.uav[63] utilizationEnergyMission 127736.73706818
scalar OsgEarthNet.uav[63] utilizationEnergyMaintenance 106691.84034729
scalar OsgEarthNet.uav[63] utilizationEnergyCharge 235953.64794922
scalar OsgEarthNet.uav[63] utilizationEnergyOverdrawMission 0
scalar OsgEarthNet.uav[63] utilizationEnergyOverdrawMaintenance 0
scalar OsgEarthNet.uav[63] utilizationCountMissions 53
scalar OsgEarthNet.uav[63] utilizationCountManeuversMission 875
scalar OsgEarthNet.uav[63] utilizationCountManeuversMaintenance 106
scalar OsgEarthNet.uav[63] utilizationCountChargeState 53
scalar OsgEarthNet.uav[63] utilizationCountOverdrawnAfterMission 0
scalar OsgEarthNet.uav[63] utilizationCountIdleState 44
scalar OsgEarthNet.uav[63] utilizationFail 0
scalar OsgEarthNet.uav[63] simulationTime 259200
scalar OsgEarthNet.uav[64] utilizationSecMission 24238.900873038
scalar OsgEarthNet.uav[64] utilizationSecMaintenance 26094.080174899
scalar OsgEarthNet.uav[64] utilizationSecCharge 179436.99962609
scalar OsgEarthNet.uav[64] utilizationSecIdle 29430.018325975
scalar OsgEarthNet.uav[64] utilizationEnergyMission 118129.38910675
scalar OsgEarthNet.uav[64] utilizationEnergyMaintenance 120483.38740921
scalar OsgEarthNet.uav[64] utilizationEnergyCharge 239061.54370117
scalar OsgEarthNet.uav[64] utilizationEnergyOverdrawMission 0
scalar OsgEarthNet.uav[64] utilizationEnergyOverdrawMaintenance 36.755180358887
scalar OsgEarthNet.uav[64] utilizationCountMissions 53
scalar OsgEarthNet.uav[64] utilizationCountManeuversMission 739
scalar OsgEarthNet.uav[64] utilizationCountManeuversMaintenance 106
scalar OsgEarthNet.uav[64] utilizationCountChargeState 53
scalar OsgEarthNet.uav[64] utilizationCountOverdrawnAfterMission 1
scalar OsgEarthNet.uav[64] utilizationCountIdleState 38
scalar OsgEarthNet.uav[64] utilizationFail 0
scalar OsgEarthNet.uav[64] simulationTime 259200
scalar OsgEarthNet.uav[65] utilizationSecMission 28041.383807342
scalar OsgEarthNet.uav[65] utilizationSecMaintenance 23766.995949296
scalar OsgEarthNet.uav[65] utilizationSecCharge 183160.91880392
scalar OsgEarthNet.uav[65] utilizationSecIdle 24230.70043944
scalar OsgEarthNet.uav[65] utilizationEnergyMission 136109.25239944
scalar OsgEarthNet.uav[65] utilizationEnergyMaintenance 110937.91976166
scalar OsgEarthNet.uav[65] utilizationEnergyCharge 243728.86083984
scalar OsgEarthNet.uav[65] utilizationEnergyOverdrawMission 0
scalar OsgEarthNet.uav[65] utilizationEnergyOverdrawMaintenance 153.63040161133
[...]
scalar OsgEarthNet.uav[81] utilizationCountMissions 58
scalar OsgEarthNet.uav[81] utilizationCountManeuversMission 893
scalar OsgEarthNet.uav[81] utilizationCountManeuversMaintenance 116
scalar OsgEarthNet.uav[81] utilizationCountChargeState 58
scalar OsgEarthNet.uav[81] utilizationCountOverdrawnAfterMission 0
scalar OsgEarthNet.uav[81] utilizationCountIdleState 26
scalar OsgEarthNet.uav[81] utilizationFail 0
scalar OsgEarthNet.uav[81] simulationTime 259200
scalar OsgEarthNet.uav[82] utilizationSecMission 28412.564157353
scalar OsgEarthNet.uav[82] utilizationSecMaintenance 27865.434842647
scalar OsgEarthNet.uav[82] utilizationSecCharge 196270
scalar OsgEarthNet.uav[82] utilizationSecIdle 6652
scalar OsgEarthNet.uav[82] utilizationEnergyMission 137730.89504242
scalar OsgEarthNet.uav[82] utilizationEnergyMaintenance 127978.54971183
scalar OsgEarthNet.uav[82] utilizationEnergyCharge 265105.62475586
scalar OsgEarthNet.uav[82] utilizationEnergyOverdrawMission 0
scalar OsgEarthNet.uav[82] utilizationEnergyOverdrawMaintenance 0
scalar OsgEarthNet.uav[82] utilizationCountMissions 60
scalar OsgEarthNet.uav[82] utilizationCountManeuversMission 878
scalar OsgEarthNet.uav[82] utilizationCountManeuversMaintenance 121
scalar OsgEarthNet.uav[82] utilizationCountChargeState 60
scalar OsgEarthNet.uav[82] utilizationCountOverdrawnAfterMission 0
scalar OsgEarthNet.uav[82] utilizationCountIdleState 24
scalar OsgEarthNet.uav[82] utilizationFail 0
scalar OsgEarthNet.uav[82] simulationTime 259200
scalar OsgEarthNet.uav[83] utilizationSecMission 28938.632440297
scalar OsgEarthNet.uav[83] utilizationSecMaintenance 26589.059512359
scalar OsgEarthNet.uav[83] utilizationSecCharge 195860.30604734
scalar OsgEarthNet.uav[83] utilizationSecIdle 7812.001
scalar OsgEarthNet.uav[83] utilizationEnergyMission 141036.89038467
scalar OsgEarthNet.uav[83] utilizationEnergyMaintenance 123709.46264267
scalar OsgEarthNet.uav[83] utilizationEnergyCharge 264102.42553711
scalar OsgEarthNet.uav[83] utilizationEnergyOverdrawMission 0
scalar OsgEarthNet.uav[83] utilizationEnergyOverdrawMaintenance 0
scalar OsgEarthNet.uav[83] utilizationCountMissions 59
scalar OsgEarthNet.uav[83] utilizationCountManeuversMission 904
scalar OsgEarthNet.uav[83] utilizationCountManeuversMaintenance 118
scalar OsgEarthNet.uav[83] utilizationCountChargeState 59
scalar OsgEarthNet.uav[83] utilizationCountOverdrawnAfterMission 0
scalar OsgEarthNet.uav[83] utilizationCountIdleState 31
scalar OsgEarthNet.uav[83] utilizationFail 0
scalar OsgEarthNet.uav[83] simulationTime 259200
scalar OsgEarthNet.uav[84] utilizationSecMission 27015.401656663
scalar OsgEarthNet.uav[84] utilizationSecMaintenance 28712.595343337
scalar OsgEarthNet.uav[84] utilizationSecCharge 196830
scalar OsgEarthNet.uav[84] utilizationSecIdle 6642.002
scalar OsgEarthNet.uav[84] utilizationEnergyMission 131744.30807495
scalar OsgEarthNet.uav[84] utilizationEnergyMaintenance 133145.10230296
scalar OsgEarthNet.uav[84] utilizationEnergyCharge 263994.16333008
scalar OsgEarthNet.uav[84] utilizationEnergyOverdrawMission 0
scalar OsgEarthNet.uav[84] utilizationEnergyOverdrawMaintenance 0
scalar OsgEarthNet.uav[84] utilizationCountMissions 60
scalar OsgEarthNet.uav[84] utilizationCountManeuversMission 891
scalar OsgEarthNet.uav[84] utilizationCountManeuversMaintenance 121
scalar OsgEarthNet.uav[84] utilizationCountChargeState 60
scalar OsgEarthNet.uav[84] utilizationCountOverdrawnAfterMission 0
scalar OsgEarthNet.uav[84] utilizationCountIdleState 24
scalar OsgEarthNet.uav[84] utilizationFail 0
scalar OsgEarthNet.uav[84] simulationTime 259200
scalar OsgEarthNet.uav[85] utilizationSecMission 29151.640338762
scalar OsgEarthNet.uav[85] utilizationSecMaintenance 26532.606102878
scalar OsgEarthNet.uav[85] utilizationSecCharge 194913.74955836
scalar OsgEarthNet.uav[85] utilizationSecIdle 8602.003
scalar OsgEarthNet.uav[85] utilizationEnergyMission 140371.96419144
scalar OsgEarthNet.uav[85] utilizationEnergyMaintenance 122810.60733414
scalar OsgEarthNet.uav[85] utilizationEnergyCharge 262131.64916992
scalar OsgEarthNet.uav[85] utilizationEnergyOverdrawMission 0
scalar OsgEarthNet.uav[85] utilizationEnergyOverdrawMaintenance 27.797826766968
scalar OsgEarthNet.uav[85] utilizationCountMissions 60
scalar OsgEarthNet.uav[85] utilizationCountManeuversMission 904
scalar OsgEarthNet.uav[85] utilizationCountManeuversMaintenance 120
scalar OsgEarthNet.uav[85] utilizationCountChargeState 60
scalar OsgEarthNet.uav[85] utilizationCountOverdrawnAfterMission 1
scalar OsgEarthNet.uav[85] utilizationCountIdleState 28
scalar OsgEarthNet.uav[85] utilizationFail 0
scalar OsgEarthNet.uav[85] simulationTime 259200
scalar OsgEarthNet.uav[86] utilizationSecMission 27806.291428456
scalar OsgEarthNet.uav[86] utilizationSecMaintenance 27764.802210888
scalar OsgEarthNet.uav[86] utilizationSecCharge 192463.63478654
scalar OsgEarthNet.uav[86] utilizationSecIdle 11165.270574118
scalar OsgEarthNet.uav[86] utilizationEnergyMission 135495.89093781
scalar OsgEarthNet.uav[86] utilizationEnergyMaintenance 128934.7236557
scalar OsgEarthNet.uav[86] utilizationEnergyCharge 257541.63513184
scalar OsgEarthNet.uav[86] utilizationEnergyOverdrawMission 0
scalar OsgEarthNet.uav[86] utilizationEnergyOverdrawMaintenance 0
scalar OsgEarthNet.uav[86] utilizationCountMissions 59
scalar OsgEarthNet.uav[86] utilizationCountManeuversMission 825
scalar OsgEarthNet.uav[86] utilizationCountManeuversMaintenance 118
scalar OsgEarthNet.uav[86] utilizationCountChargeState 59
scalar OsgEarthNet.uav[86] utilizationCountOverdrawnAfterMission 0
scalar OsgEarthNet.uav[86] utilizationCountIdleState 31
scalar OsgEarthNet.uav[86] utilizationFail 0
scalar OsgEarthNet.uav[86] simulationTime 259200
scalar OsgEarthNet.uav[87] utilizationSecMission 28742.511286033
scalar OsgEarthNet.uav[87] utilizationSecMaintenance 27325.477713967
scalar OsgEarthNet.uav[87] utilizationSecCharge 194640
scalar OsgEarthNet.uav[87] utilizationSecIdle 8492.01
scalar OsgEarthNet.uav[87] utilizationEnergyMission 140050.57110877
scalar OsgEarthNet.uav[87] utilizationEnergyMaintenance 127139.67401886
scalar OsgEarthNet.uav[87] utilizationEnergyCharge 264087.85498047
scalar OsgEarthNet.uav[87] utilizationEnergyOverdrawMission 0
scalar OsgEarthNet.uav[87] utilizationEnergyOverdrawMaintenance 0
scalar OsgEarthNet.uav[87] utilizationCountMissions 59
scalar OsgEarthNet.uav[87] utilizationCountManeuversMission 940
scalar OsgEarthNet.uav[87] utilizationCountManeuversMaintenance 119
scalar OsgEarthNet.uav[87] utilizationCountChargeState 59
scalar OsgEarthNet.uav[87] utilizationCountOverdrawnAfterMission 0
scalar OsgEarthNet.uav[87] utilizationCountIdleState 17
scalar OsgEarthNet.uav[87] utilizationFail 0
scalar OsgEarthNet.uav[87] simulationTime 259200
scalar OsgEarthNet.uav[88] utilizationSecMission 28289.571911436
scalar OsgEarthNet.uav[88] utilizationSecMaintenance 27361.727811522
scalar OsgEarthNet.uav[88] utilizationSecCharge 196226.69727704
scalar OsgEarthNet.uav[88] utilizationSecIdle 7322.002
scalar OsgEarthNet.uav[88] utilizationEnergyMission 139335.366642
scalar OsgEarthNet.uav[88] utilizationEnergyMaintenance 127906.94422913
scalar OsgEarthNet.uav[88] utilizationEnergyCharge 264523.21801758
scalar OsgEarthNet.uav[88] utilizationEnergyOverdrawMission 0
scalar OsgEarthNet.uav[88] utilizationEnergyOverdrawMaintenance 0
scalar OsgEarthNet.uav[88] utilizationCountMissions 60
scalar OsgEarthNet.uav[88] utilizationCountManeuversMission 873
scalar OsgEarthNet.uav[88] utilizationCountManeuversMaintenance 120
scalar OsgEarthNet.uav[88] utilizationCountChargeState 60
scalar OsgEarthNet.uav[88] utilizationCountOverdrawnAfterMission 0
scalar OsgEarthNet.uav[88] utilizationCountIdleState 21
scalar OsgEarthNet.uav[88] utilizationFail 0
scalar OsgEarthNet.uav[88] simulationTime 259200
scalar OsgEarthNet.uav[89] utilizationSecMission 29521.70476686
scalar OsgEarthNet.uav[89] utilizationSecMaintenance 26790.353352814
scalar OsgEarthNet.uav[89] utilizationSecCharge 195370
scalar OsgEarthNet.uav[89] utilizationSecIdle 7517.9408803266
scalar OsgEarthNet.uav[89] utilizationEnergyMission 141372.07557631
scalar OsgEarthNet.uav[89] utilizationEnergyMaintenance 124521.61727905
scalar OsgEarthNet.uav[89] utilizationEnergyCharge 263828.74389648
scalar OsgEarthNet.uav[89] utilizationEnergyOverdrawMission 0
scalar OsgEarthNet.uav[89] utilizationEnergyOverdrawMaintenance 140.22950744629
scalar OsgEarthNet.uav[89] utilizationCountMissions 59
scalar OsgEarthNet.uav[89] utilizationCountManeuversMission 921
scalar OsgEarthNet.uav[89] utilizationCountManeuversMaintenance 119
scalar OsgEarthNet.uav[89] utilizationCountChargeState 59
scalar OsgEarthNet.uav[89] utilizationCountOverdrawnAfterMission 1
scalar OsgEarthNet.uav[89] utilizationCountIdleState 20
scalar OsgEarthNet.uav[89] utilizationFail 0
scalar OsgEarthNet.uav[89] simulationTime 259200
scalar OsgEarthNet.uav[90] utilizationSecMission 30240.317670986
scalar OsgEarthNet.uav[90] utilizationSecMaintenance 25807.047194607
scalar OsgEarthNet.uav[90] utilizationSecCharge 196320.63413441
scalar OsgEarthNet.uav[90] utilizationSecIdle 6832
scalar OsgEarthNet.uav[90] utilizationEnergyMission 146641.67935944
scalar OsgEarthNet.uav[90] utilizationEnergyMaintenance 119871.08640671
scalar OsgEarthNet.uav[90] utilizationEnergyCharge 265437.53063965
scalar OsgEarthNet.uav[90] utilizationEnergyOverdrawMission 0
scalar OsgEarthNet.uav[90] utilizationEnergyOverdrawMaintenance 116.85311889648
scalar OsgEarthNet.uav[90] utilizationCountMissions 60
scalar OsgEarthNet.uav[90] utilizationCountManeuversMission 1022
scalar OsgEarthNet.uav[90] utilizationCountManeuversMaintenance 119
scalar OsgEarthNet.uav[90] utilizationCountChargeState 60
scalar OsgEarthNet.uav[90] utilizationCountOverdrawnAfterMission 1
scalar OsgEarthNet.uav[90] utilizationCountIdleState 26
scalar OsgEarthNet.uav[90] utilizationFail 0
scalar OsgEarthNet.uav[90] simulationTime 259200
scalar OsgEarthNet.uav[91] utilizationSecMission 27686.443200954
scalar OsgEarthNet.uav[91] utilizationSecMaintenance 28641.4685547
scalar OsgEarthNet.uav[91] utilizationSecCharge 193570
scalar OsgEarthNet.uav[91] utilizationSecIdle 9302.0872443463
scalar OsgEarthNet.uav[91] utilizationEnergyMission 132602.77609899
scalar OsgEarthNet.uav[91] utilizationEnergyMaintenance 132493.63460159
scalar OsgEarthNet.uav[91] utilizationEnergyCharge 262013.24267578
scalar OsgEarthNet.uav[91] utilizationEnergyOverdrawMission 0
scalar OsgEarthNet.uav[91] utilizationEnergyOverdrawMaintenance 0
scalar OsgEarthNet.uav[91] utilizationCountMissions 59
scalar OsgEarthNet.uav[91] utilizationCountManeuversMission 821
scalar OsgEarthNet.uav[91] utilizationCountManeuversMaintenance 119
scalar OsgEarthNet.uav[91] utilizationCountChargeState 59
scalar OsgEarthNet.uav[91] utilizationCountOverdrawnAfterMission 0
scalar OsgEarthNet.uav[91] utilizationCountIdleState 24
scalar OsgEarthNet.uav[91] utilizationFail 0
scalar OsgEarthNet.uav[91] simulationTime 259200
scalar OsgEarthNet.uav[92] utilizationSecMission 28804.852126062
scalar OsgEarthNet.uav[92] utilizationSecMaintenance 27190.767505034
scalar OsgEarthNet.uav[92] utilizationSecCharge 196386.92910487
scalar OsgEarthNet.uav[92] utilizationSecIdle 6817.4502640309
scalar OsgEarthNet.uav[92] utilizationEnergyMission 139433.46510696
scalar OsgEarthNet.uav[92] utilizationEnergyMaintenance 125879.67484665
scalar OsgEarthNet.uav[92] utilizationEnergyCharge 264911.85742188
scalar OsgEarthNet.uav[92] utilizationEnergyOverdrawMission 0
scalar OsgEarthNet.uav[92] utilizationEnergyOverdrawMaintenance 0
scalar OsgEarthNet.uav[92] utilizationCountMissions 60
scalar OsgEarthNet.uav[92] utilizationCountManeuversMission 918
scalar OsgEarthNet.uav[92] utilizationCountManeuversMaintenance 120
scalar OsgEarthNet.uav[92] utilizationCountChargeState 60
scalar OsgEarthNet.uav[92] utilizationCountOverdrawnAfterMission 0
scalar OsgEarthNet.uav[92] utilizationCountIdleState 23
scalar OsgEarthNet.uav[92] utilizationFail 0
scalar OsgEarthNet.uav[92] simulationTime 259200
scalar OsgEarthNet.uav[93] utilizationSecMission 28670.796890546
scalar OsgEarthNet.uav[93] utilizationSecMaintenance 26288.148842878
scalar OsgEarthNet.uav[93] utilizationSecCharge 195630.10001091
scalar OsgEarthNet.uav[93] utilizationSecIdle 8610.9532556647
scalar OsgEarthNet.uav[93] utilizationEnergyMission 141068.5666275
scalar OsgEarthNet.uav[93] utilizationEnergyMaintenance 122946.20780945
scalar OsgEarthNet.uav[93] utilizationEnergyCharge 264276.46899414
scalar OsgEarthNet.uav[93] utilizationEnergyOverdrawMission 0
scalar OsgEarthNet.uav[93] utilizationEnergyOverdrawMaintenance 0
scalar OsgEarthNet.uav[93] utilizationCountMissions 60
scalar OsgEarthNet.uav[93] utilizationCountManeuversMission 1029
scalar OsgEarthNet.uav[93] utilizationCountManeuversMaintenance 120
scalar OsgEarthNet.uav[93] utilizationCountChargeState 60
scalar OsgEarthNet.uav[93] utilizationCountOverdrawnAfterMission 0
scalar OsgEarthNet.uav[93] utilizationCountIdleState 21
scalar OsgEarthNet.uav[93] utilizationFail 0
scalar OsgEarthNet.uav[93] simulationTime 259200
scalar OsgEarthNet.uav[94] utilizationSecMission 30078.598739778
scalar OsgEarthNet.uav[94] utilizationSecMaintenance 25341.635187817
scalar OsgEarthNet.uav[94] utilizationSecCharge 193554.31598371
scalar OsgEarthNet.uav[94] utilizationSecIdle 10225.449088691
scalar OsgEarthNet.uav[94] utilizationEnergyMission 143075.87005997
scalar OsgEarthNet.uav[94] utilizationEnergyMaintenance 118973.45596313
scalar OsgEarthNet.uav[94] utilizationEnergyCharge 261918.5859375
scalar OsgEarthNet.uav[94] utilizationEnergyOverdrawMission 0
scalar OsgEarthNet.uav[94] utilizationEnergyOverdrawMaintenance 0
scalar OsgEarthNet.uav[94] utilizationCountMissions 59
scalar OsgEarthNet.uav[94] utilizationCountManeuversMission 846
scalar OsgEarthNet.uav[94] utilizationCountManeuversMaintenance 118
scalar OsgEarthNet.uav[94] utilizationCountChargeState 59
scalar OsgEarthNet.uav[94] utilizationCountOverdrawnAfterMission 0
scalar OsgEarthNet.uav[94] utilizationCountIdleState 25
scalar OsgEarthNet.uav[94] utilizationFail 0
scalar OsgEarthNet.uav[94] simulationTime 259200
scalar OsgEarthNet.uav[95] utilizationSecMission 29778.989657519
scalar OsgEarthNet.uav[95] utilizationSecMaintenance 26455.027807145
scalar OsgEarthNet.uav[95] utilizationSecCharge 196083.97753534
scalar OsgEarthNet.uav[95] utilizationSecIdle 6882.004
scalar OsgEarthNet.uav[95] utilizationEnergyMission 144077.10601425
scalar OsgEarthNet.uav[95] utilizationEnergyMaintenance 123022.11674118
scalar OsgEarthNet.uav[95] utilizationEnergyCharge 265471.85327148
scalar OsgEarthNet.uav[95] utilizationEnergyOverdrawMission 0
scalar OsgEarthNet.uav[95] utilizationEnergyOverdrawMaintenance 0
scalar OsgEarthNet.uav[95] utilizationCountMissions 60
scalar OsgEarthNet.uav[95] utilizationCountManeuversMission 924
scalar OsgEarthNet.uav[95] utilizationCountManeuversMaintenance 120
scalar OsgEarthNet.uav[95] utilizationCountChargeState 60
scalar OsgEarthNet.uav[95] utilizationCountOverdrawnAfterMission 0
scalar OsgEarthNet.uav[95] utilizationCountIdleState 28
scalar OsgEarthNet.uav[95] utilizationFail 0
scalar OsgEarthNet.uav[95] simulationTime 259200
scalar OsgEarthNet.uav[96] utilizationSecMission 27761.815983992
scalar OsgEarthNet.uav[96] utilizationSecMaintenance 28931.91003281
scalar OsgEarthNet.uav[96] utilizationSecCharge 197594.2709832
scalar OsgEarthNet.uav[96] utilizationSecIdle 4912.002
scalar OsgEarthNet.uav[96] utilizationEnergyMission 135223.29696655
scalar OsgEarthNet.uav[96] utilizationEnergyMaintenance 134860.18315887
scalar OsgEarthNet.uav[96] utilizationEnergyCharge 268628.296875
scalar OsgEarthNet.uav[96] utilizationEnergyOverdrawMission 0
scalar OsgEarthNet.uav[96] utilizationEnergyOverdrawMaintenance 0
scalar OsgEarthNet.uav[96] utilizationCountMissions 61
scalar OsgEarthNet.uav[96] utilizationCountManeuversMission 890
scalar OsgEarthNet.uav[96] utilizationCountManeuversMaintenance 122
scalar OsgEarthNet.uav[96] utilizationCountChargeState 61
scalar OsgEarthNet.uav[96] utilizationCountOverdrawnAfterMission 0
scalar OsgEarthNet.uav[96] utilizationCountIdleState 18
scalar OsgEarthNet.uav[96] utilizationFail 0
scalar OsgEarthNet.uav[96] simulationTime 259200
scalar OsgEarthNet.uav[97] utilizationSecMission 27883.452046275
scalar OsgEarthNet.uav[97] utilizationSecMaintenance 28858.596490304
scalar OsgEarthNet.uav[97] utilizationSecCharge 198215.95046342
scalar OsgEarthNet.uav[97] utilizationSecIdle 4242
scalar OsgEarthNet.uav[97] utilizationEnergyMission 135359.47489548
scalar OsgEarthNet.uav[97] utilizationEnergyMaintenance 134280.56035233
scalar OsgEarthNet.uav[97] utilizationEnergyCharge 269906.86669922
scalar OsgEarthNet.uav[97] utilizationEnergyOverdrawMission 0
scalar OsgEarthNet.uav[97] utilizationEnergyOverdrawMaintenance 0
scalar OsgEarthNet.uav[97] utilizationCountMissions 60
scalar OsgEarthNet.uav[97] utilizationCountManeuversMission 829
scalar OsgEarthNet.uav[97] utilizationCountManeuversMaintenance 120
scalar OsgEarthNet.uav[97] utilizationCountChargeState 60
scalar OsgEarthNet.uav[97] utilizationCountOverdrawnAfterMission 0
scalar OsgEarthNet.uav[97] utilizationCountIdleState 21
scalar OsgEarthNet.uav[97] utilizationFail 0
scalar OsgEarthNet.uav[97] simulationTime 259200
scalar OsgEarthNet.uav[98] utilizationSecMission 28447.69445353
scalar OsgEarthNet.uav[98] utilizationSecMaintenance 28101.63073729
scalar OsgEarthNet.uav[98] utilizationSecCharge 196688.67280918
scalar OsgEarthNet.uav[98] utilizationSecIdle 5962.001
scalar OsgEarthNet.uav[98] utilizationEnergyMission 137762.82252884
scalar OsgEarthNet.uav[98] utilizationEnergyMaintenance 130408.56201935
scalar OsgEarthNet.uav[98] utilizationEnergyCharge 266287.71392822
scalar OsgEarthNet.uav[98] utilizationEnergyOverdrawMission 0
scalar OsgEarthNet.uav[98] utilizationEnergyOverdrawMaintenance 0
scalar OsgEarthNet.uav[98] utilizationCountMissions 61
scalar OsgEarthNet.uav[98] utilizationCountManeuversMission 969
scalar OsgEarthNet.uav[98] utilizationCountManeuversMaintenance 122
scalar OsgEarthNet.uav[98] utilizationCountChargeState 61
scalar OsgEarthNet.uav[98] utilizationCountOverdrawnAfterMission 0
scalar OsgEarthNet.uav[98] utilizationCountIdleState 27
scalar OsgEarthNet.uav[98] utilizationFail 0
scalar OsgEarthNet.uav[98] simulationTime 259200
scalar OsgEarthNet.uav[99] utilizationSecMission 31114.398235233
scalar OsgEarthNet.uav[99] utilizationSecMaintenance 26427.491480835
scalar OsgEarthNet.uav[99] utilizationSecCharge 195655.96947079
scalar OsgEarthNet.uav[99] utilizationSecIdle 6002.1398131443
scalar OsgEarthNet.uav[99] utilizationEnergyMission 148281.86410904
scalar OsgEarthNet.uav[99] utilizationEnergyMaintenance 121616.35456467
scalar OsgEarthNet.uav[99] utilizationEnergyCharge 263931.58929443
scalar OsgEarthNet.uav[99] utilizationEnergyOverdrawMission 0
scalar OsgEarthNet.uav[99] utilizationEnergyOverdrawMaintenance 0
scalar OsgEarthNet.uav[99] utilizationCountMissions 61
scalar OsgEarthNet.uav[99] utilizationCountManeuversMission 799
scalar OsgEarthNet.uav[99] utilizationCountManeuversMaintenance 122
scalar OsgEarthNet.uav[99] utilizationCountChargeState 61
scalar OsgEarthNet.uav[99] utilizationCountOverdrawnAfterMission 0
scalar OsgEarthNet.uav[99] utilizationCountIdleState 23
scalar OsgEarthNet.uav[99] utilizationFail 0
scalar OsgEarthNet.uav[99] simulationTime 259200
scalar OsgEarthNet.cs[0] usedPower 5364506.7921589
scalar OsgEarthNet.cs[0] chargedPower 5364506.7921589
scalar OsgEarthNet.cs[0] chargedMobileNodes 900
scalar OsgEarthNet.cs[0] reservations 1228
scalar OsgEarthNet.cs[1] usedPower 5668409.9799323
scalar OsgEarthNet.cs[1] chargedPower 5668409.9799323
scalar OsgEarthNet.cs[1] chargedMobileNodes 891
scalar OsgEarthNet.cs[1] reservations 1256
scalar OsgEarthNet.cs[2] usedPower 9629541.5309234
scalar OsgEarthNet.cs[2] chargedPower 9629541.5309234
scalar OsgEarthNet.cs[2] chargedMobileNodes 1713
scalar OsgEarthNet.cs[2] reservations 2182

