version 2
run Szenario_Hotel_Gabelbach-32-20180707-22:08:58-6100
attr configname Szenario_Hotel_Gabelbach
attr datetime 20180707-22:08:58
attr experiment Szenario_Hotel_Gabelbach
attr inifile omnetpp.ini
attr iterationvars "$quant=0.75, $replM=0"
attr iterationvarsf quant=0.75,replM=0-
attr measurement "$quant=0.75, $replM=0"
attr network OsgEarthNet
attr processid 6100
attr repetition 8
attr replication #8
attr resultdir results
attr runnumber 32
attr seedset 32
itervar quant 0.75
itervar replM 0
param *.osgEarthScene.scene "\"Szenario_Hotel_Gabelbach.earth\""
param *.playgroundLatitude 50.6830269
param *.playgroundLongitude 10.8538055
param *.playgroundWidth 3500m
param *.playgroundHeight 3500m
param *.numCSs 3
param *.numUAVs 100
param *.cs[0].posX 3537m
param *.cs[0].posY 965m
param *.cs[0].posZ 538m
param *.cs[1].posX 312m
param *.cs[1].posY 1262m
param *.cs[1].posZ 539m
param *.cs[2].posX 2185m
param *.cs[2].posY 3026m
param *.cs[2].posZ 777m
param *.uav[*].predictionQuantile 0.75
param *.uav[*].replacementMethod 0
param *.*.timeStep 10s
param *.uav[*].commandPreviewCommandCount 20
param *.missionControl.missionFiles "\"missions\\\\Szenario_WB_Hotel_Gabelbach_Mission_Hotel.waypoints,missions\\\\Szenario_WB_Hotel_Gabelbach_Mission_Kickelhahn.waypoints,missions\\\\Szenario_WB_Hotel_Gabelbach_Mission_Ilmenau_Sportplatz.waypoints,missions\\\\Szenario_WB_Hotel_Gabelbach_Mission_Manebach_Mitte.waypoints,missions\\\\Szenario_WB_Hotel_Gabelbach_Mission_Manebach_Sued.waypoints,missions\\\\Szenario_WB_Hotel_Gabelbach_Hover_HoheSchlaufe.waypoints,missions\\\\Szenario_WB_Hotel_Gabelbach_Hover_Kickelhahn.waypoints,missions\\\\Szenario_WB_Hotel_Gabelbach_Hover_Gabelbachskopf.waypoints,missions\\\\Szenario_WB_Hotel_Gabelbach_Hover_Dachskopf.waypoints\""
param *.uav[0].startX 3537m
param *.uav[0].startY 965m
param *.uav[0].startZ 539m
param *.uav[1].startX 312m
param *.uav[1].startY 1262m
param *.uav[1].startZ 540m
param *.uav[2].startX 2185m
param *.uav[2].startY 3026m
param *.uav[2].startZ 778m
param *.uav[3].startX 3537m
param *.uav[3].startY 965m
param *.uav[3].startZ 539m
param *.uav[4].startX 312m
param *.uav[4].startY 1262m
param *.uav[4].startZ 540m
param *.uav[5].startX 2185m
param *.uav[5].startY 3026m
param *.uav[5].startZ 778m
param *.uav[6].startX 3537m
param *.uav[6].startY 965m
param *.uav[6].startZ 539m
param *.uav[7].startX 312m
param *.uav[7].startY 1262m
param *.uav[7].startZ 540m
param *.uav[8].startX 2185m
param *.uav[8].startY 3026m
param *.uav[8].startZ 778m
param *.uav[9].startX 3537m
param *.uav[9].startY 965m
param *.uav[9].startZ 539m
param *.uav[10].startX 3537m
param *.uav[10].startY 965m
param *.uav[10].startZ 539m
param *.uav[11].startX 312m
param *.uav[11].startY 1262m
param *.uav[11].startZ 540m
param *.uav[12].startX 2185m
param *.uav[12].startY 3026m
param *.uav[12].startZ 778m
param *.uav[13].startX 3537m
param *.uav[13].startY 965m
param *.uav[13].startZ 539m
param *.uav[14].startX 312m
param *.uav[14].startY 1262m
param *.uav[14].startZ 540m
param *.uav[15].startX 2185m
param *.uav[15].startY 3026m
param *.uav[15].startZ 778m
param *.uav[16].startX 3537m
param *.uav[16].startY 965m
param *.uav[16].startZ 539m
param *.uav[17].startX 312m
param *.uav[17].startY 1262m
param *.uav[17].startZ 540m
param *.uav[18].startX 2185m
param *.uav[18].startY 3026m
param *.uav[18].startZ 778m
param *.uav[19].startX 3537m
param *.uav[19].startY 965m
param *.uav[19].startZ 539m
param *.uav[20].startX 3537m
param *.uav[20].startY 965m
param *.uav[20].startZ 539m
param *.uav[21].startX 312m
param *.uav[21].startY 1262m
param *.uav[21].startZ 540m
param *.uav[22].startX 2185m
param *.uav[22].startY 3026m
param *.uav[22].startZ 778m
param *.uav[23].startX 3537m
param *.uav[23].startY 965m
param *.uav[23].startZ 539m
param *.uav[24].startX 312m
param *.uav[24].startY 1262m
param *.uav[24].startZ 540m
param *.uav[25].startX 2185m
param *.uav[25].startY 3026m
param *.uav[25].startZ 778m
param *.uav[26].startX 3537m
param *.uav[26].startY 965m
param *.uav[26].startZ 539m
param *.uav[27].startX 312m
param *.uav[27].startY 1262m
param *.uav[27].startZ 540m
param *.uav[28].startX 2185m
param *.uav[28].startY 3026m
param *.uav[28].startZ 778m
param *.uav[29].startX 3537m
param *.uav[29].startY 965m
param *.uav[29].startZ 539m
param *.uav[30].startX 3537m
param *.uav[30].startY 965m
param *.uav[30].startZ 539m
param *.uav[31].startX 312m
param *.uav[31].startY 1262m
param *.uav[31].startZ 540m
param *.uav[32].startX 2185m
param *.uav[32].startY 3026m
param *.uav[32].startZ 778m
param *.uav[33].startX 3537m
param *.uav[33].startY 965m
param *.uav[33].startZ 539m
param *.uav[34].startX 312m
param *.uav[34].startY 1262m
param *.uav[34].startZ 540m
param *.uav[35].startX 2185m
param *.uav[35].startY 3026m
param *.uav[35].startZ 778m
param *.uav[36].startX 3537m
param *.uav[36].startY 965m
param *.uav[36].startZ 539m
param *.uav[37].startX 312m
param *.uav[37].startY 1262m
param *.uav[37].startZ 540m
param *.uav[38].startX 2185m
param *.uav[38].startY 3026m
param *.uav[38].startZ 778m
param *.uav[39].startX 3537m
param *.uav[39].startY 965m
param *.uav[39].startZ 539m
param *.uav[40].startX 3537m
param *.uav[40].startY 965m
param *.uav[40].startZ 539m
param *.uav[41].startX 312m
param *.uav[41].startY 1262m
param *.uav[41].startZ 540m
param *.uav[42].startX 2185m
param *.uav[42].startY 3026m
param *.uav[42].startZ 778m
param *.uav[43].startX 3537m
param *.uav[43].startY 965m
param *.uav[43].startZ 539m
param *.uav[44].startX 312m
param *.uav[44].startY 1262m
param *.uav[44].startZ 540m
param *.uav[45].startX 2185m
param *.uav[45].startY 3026m
param *.uav[45].startZ 778m
param *.uav[46].startX 3537m
param *.uav[46].startY 965m
param *.uav[46].startZ 539m
param *.uav[47].startX 312m
param *.uav[47].startY 1262m
param *.uav[47].startZ 540m
param *.uav[48].startX 2185m
param *.uav[48].startY 3026m
param *.uav[48].startZ 778m
param *.uav[49].startX 3537m
param *.uav[49].startY 965m
param *.uav[49].startZ 539m
param *.uav[50].startX 3537m
param *.uav[50].startY 965m
param *.uav[50].startZ 539m
param *.uav[51].startX 312m
param *.uav[51].startY 1262m
param *.uav[51].startZ 540m
param *.uav[52].startX 2185m
param *.uav[52].startY 3026m
param *.uav[52].startZ 778m
param *.uav[53].startX 3537m
param *.uav[53].startY 965m
param *.uav[53].startZ 539m
param *.uav[54].startX 312m
param *.uav[54].startY 1262m
param *.uav[54].startZ 540m
param *.uav[55].startX 2185m
param *.uav[55].startY 3026m
param *.uav[55].startZ 778m
param *.uav[56].startX 3537m
param *.uav[56].startY 965m
param *.uav[56].startZ 539m
param *.uav[57].startX 312m
param *.uav[57].startY 1262m
param *.uav[57].startZ 540m
param *.uav[58].startX 2185m
param *.uav[58].startY 3026m
param *.uav[58].startZ 778m
param *.uav[59].startX 3537m
param *.uav[59].startY 965m
param *.uav[59].startZ 539m
param *.uav[60].startX 3537m
param *.uav[60].startY 965m
param *.uav[60].startZ 539m
param *.uav[61].startX 312m
param *.uav[61].startY 1262m
param *.uav[61].startZ 540m
param *.uav[62].startX 2185m
param *.uav[62].startY 3026m
param *.uav[62].startZ 778m
param *.uav[63].startX 3537m
param *.uav[63].startY 965m
param *.uav[63].startZ 539m
param *.uav[64].startX 312m
param *.uav[64].startY 1262m
param *.uav[64].startZ 540m
param *.uav[65].startX 2185m
param *.uav[65].startY 3026m
param *.uav[65].startZ 778m
param *.uav[66].startX 3537m
param *.uav[66].startY 965m
param *.uav[66].startZ 539m
param *.uav[67].startX 312m
param *.uav[67].startY 1262m
param *.uav[67].startZ 540m
param *.uav[68].startX 2185m
param *.uav[68].startY 3026m
param *.uav[68].startZ 778m
param *.uav[69].startX 3537m
param *.uav[69].startY 965m
param *.uav[69].startZ 539m
param *.uav[70].startX 3537m
param *.uav[70].startY 965m
param *.uav[70].startZ 539m
param *.uav[71].startX 312m
param *.uav[71].startY 1262m
param *.uav[71].startZ 540m
param *.uav[72].startX 2185m
param *.uav[72].startY 3026m
param *.uav[72].startZ 778m
param *.uav[73].startX 3537m
param *.uav[73].startY 965m
param *.uav[73].startZ 539m
param *.uav[74].startX 312m
param *.uav[74].startY 1262m
param *.uav[74].startZ 540m
param *.uav[75].startX 2185m
param *.uav[75].startY 3026m
param *.uav[75].startZ 778m
param *.uav[76].startX 3537m
param *.uav[76].startY 965m
param *.uav[76].startZ 539m
param *.uav[77].startX 312m
param *.uav[77].startY 1262m
param *.uav[77].startZ 540m
param *.uav[78].startX 2185m
param *.uav[78].startY 3026m
param *.uav[78].startZ 778m
param *.uav[79].startX 3537m
param *.uav[79].startY 965m
param *.uav[79].startZ 539m
param *.uav[80].startX 3537m
param *.uav[80].startY 965m
param *.uav[80].startZ 539m
param *.uav[81].startX 312m
param *.uav[81].startY 1262m
param *.uav[81].startZ 540m
param *.uav[82].startX 2185m
param *.uav[82].startY 3026m
param *.uav[82].startZ 778m
param *.uav[83].startX 3537m
param *.uav[83].startY 965m
param *.uav[83].startZ 539m
param *.uav[84].startX 312m
param *.uav[84].startY 1262m
param *.uav[84].startZ 540m
param *.uav[85].startX 2185m
param *.uav[85].startY 3026m
param *.uav[85].startZ 778m
param *.uav[86].startX 3537m
param *.uav[86].startY 965m
param *.uav[86].startZ 539m
param *.uav[87].startX 312m
param *.uav[87].startY 1262m
param *.uav[87].startZ 540m
param *.uav[88].startX 2185m
param *.uav[88].startY 3026m
param *.uav[88].startZ 778m
param *.uav[89].startX 3537m
param *.uav[89].startY 965m
param *.uav[89].startZ 539m
param *.uav[90].startX 3537m
param *.uav[90].startY 965m
param *.uav[90].startZ 539m
param *.uav[91].startX 312m
param *.uav[91].startY 1262m
param *.uav[91].startZ 540m
param *.uav[92].startX 2185m
param *.uav[92].startY 3026m
param *.uav[92].startZ 778m
param *.uav[93].startX 3537m
param *.uav[93].startY 965m
param *.uav[93].startZ 539m
param *.uav[94].startX 312m
param *.uav[94].startY 1262m
param *.uav[94].startZ 540m
param *.uav[95].startX 2185m
param *.uav[95].startY 3026m
param *.uav[95].startZ 778m
param *.uav[96].startX 3537m
param *.uav[96].startY 965m
param *.uav[96].startZ 539m
param *.uav[97].startX 312m
param *.uav[97].startY 1262m
param *.uav[97].startZ 540m
param *.uav[98].startX 2185m
param *.uav[98].startY 3026m
param *.uav[98].startZ 778m
param *.uav[99].startX 3537m
param *.uav[99].startY 965m
param *.uav[99].startZ 539m
param *.osgEarthScene.scene "\"boston.earth\""
param *.playgroundLatitude 42.3558
param *.playgroundLongitude -71.0677
param *.playgroundWidth 400m
param *.playgroundHeight 200m
param *.channelController.connectionColor "\"#0000FF40\""
param *.channelController.showConnections false
param *.uav[*].modelURL "\"quadrocopter.small.obj.15.scale.0,0,90.rot\""
param *.uav[*].labelColor "\"#FF7C00CC\""
param *.uav[*].label2Color "\"#FF7C00EE\""
param *.uav[*].batteryCapacity 5200mAh
param *.uav[*].batteryRemaining uav[index].batteryCapacity
param *.uav[*].predictionQuantile 0.95
param *.uav[*].replacementMethod 2
param *.uav[*].weightedSumWeight 0.5
param *.cs[*].modelURL "\"chargingstation_v1.osgt.1.scale.0,0,0.rot.0,0,-15e-1.trans\""
param *.cs[*].spotsWaiting 999
param *.cs[*].spotsCharging 999
param *.cs[*].chargeEffectivenessPercentage 100
param *.cs[*].nonLinearPhaseStartPercentage 85
param *.cs[*].chargeCurrent 6.0A
param *.cs[*].prioritizeFastCharge true
param *.missionControl.replacementSearchMethod 0
param *.*.timeStep 9s

scalar OsgEarthNet.uav[0] utilizationSecMission 17290.062658402
scalar OsgEarthNet.uav[0] utilizationSecMaintenance 11789.378343246
scalar OsgEarthNet.uav[0] utilizationSecCharge 100626.87099549
scalar OsgEarthNet.uav[0] utilizationSecIdle 20718.005849283
scalar OsgEarthNet.uav[0] utilizationEnergyMission 83746.846603394
scalar OsgEarthNet.uav[0] utilizationEnergyMaintenance 54078.790237427
scalar OsgEarthNet.uav[0] utilizationEnergyCharge 133964.19897461
scalar OsgEarthNet.uav[0] utilizationEnergyOverdrawMission 0
scalar OsgEarthNet.uav[0] utilizationEnergyOverdrawMaintenance 3.836296081543
scalar OsgEarthNet.uav[0] utilizationCountMissions 28
scalar OsgEarthNet.uav[0] utilizationCountManeuversMission 468
scalar OsgEarthNet.uav[0] utilizationCountManeuversMaintenance 56
scalar OsgEarthNet.uav[0] utilizationCountChargeState 28
scalar OsgEarthNet.uav[0] utilizationCountOverdrawnAfterMission 1
scalar OsgEarthNet.uav[0] utilizationCountIdleState 28
scalar OsgEarthNet.uav[0] utilizationFail 0
scalar OsgEarthNet.uav[0] simulationTime 150424.31884642
scalar OsgEarthNet.uav[1] utilizationSecMission 16468.00727958
scalar OsgEarthNet.uav[1] utilizationSecMaintenance 12834.310059453
scalar OsgEarthNet.uav[1] utilizationSecCharge 103560
scalar OsgEarthNet.uav[1] utilizationSecIdle 17562.000507383
scalar OsgEarthNet.uav[1] utilizationEnergyMission 79875.409568787
scalar OsgEarthNet.uav[1] utilizationEnergyMaintenance 60298.997943147
scalar OsgEarthNet.uav[1] utilizationEnergyCharge 136920.56396484
scalar OsgEarthNet.uav[1] utilizationEnergyOverdrawMission 0
scalar OsgEarthNet.uav[1] utilizationEnergyOverdrawMaintenance 137.89785766602
scalar OsgEarthNet.uav[1] utilizationCountMissions 29
scalar OsgEarthNet.uav[1] utilizationCountManeuversMission 492
scalar OsgEarthNet.uav[1] utilizationCountManeuversMaintenance 58
scalar OsgEarthNet.uav[1] utilizationCountChargeState 28
scalar OsgEarthNet.uav[1] utilizationCountOverdrawnAfterMission 2
scalar OsgEarthNet.uav[1] utilizationCountIdleState 29
scalar OsgEarthNet.uav[1] utilizationFail 0
scalar OsgEarthNet.uav[1] simulationTime 150424.31884642
scalar OsgEarthNet.uav[2] utilizationSecMission 4635.1265241818
scalar OsgEarthNet.uav[2] utilizationSecMaintenance 3330.5952962565
scalar OsgEarthNet.uav[2] utilizationSecCharge 29080
scalar OsgEarthNet.uav[2] utilizationSecIdle 113378.59602598
scalar OsgEarthNet.uav[2] utilizationEnergyMission 22681.54712677
scalar OsgEarthNet.uav[2] utilizationEnergyMaintenance 15435.149284363
scalar OsgEarthNet.uav[2] utilizationEnergyCharge 38149.05078125
scalar OsgEarthNet.uav[2] utilizationEnergyOverdrawMission 0
scalar OsgEarthNet.uav[2] utilizationEnergyOverdrawMaintenance 0
scalar OsgEarthNet.uav[2] utilizationCountMissions 8
scalar OsgEarthNet.uav[2] utilizationCountManeuversMission 162
scalar OsgEarthNet.uav[2] utilizationCountManeuversMaintenance 16
scalar OsgEarthNet.uav[2] utilizationCountChargeState 8
scalar OsgEarthNet.uav[2] utilizationCountOverdrawnAfterMission 0
scalar OsgEarthNet.uav[2] utilizationCountIdleState 9
scalar OsgEarthNet.uav[2] utilizationFail 0
scalar OsgEarthNet.uav[2] simulationTime 150424.31884642
scalar OsgEarthNet.uav[3] utilizationSecMission 16504.748652003
scalar OsgEarthNet.uav[3] utilizationSecMaintenance 9901.8605941366
scalar OsgEarthNet.uav[3] utilizationSecCharge 95095.702600276
scalar OsgEarthNet.uav[3] utilizationSecIdle 28922.006
scalar OsgEarthNet.uav[3] utilizationEnergyMission 79738.552688599
scalar OsgEarthNet.uav[3] utilizationEnergyMaintenance 46225.278564453
scalar OsgEarthNet.uav[3] utilizationEnergyCharge 125783.98046875
scalar OsgEarthNet.uav[3] utilizationEnergyOverdrawMission 0
scalar OsgEarthNet.uav[3] utilizationEnergyOverdrawMaintenance 216.37710571289
scalar OsgEarthNet.uav[3] utilizationCountMissions 26
scalar OsgEarthNet.uav[3] utilizationCountManeuversMission 479
scalar OsgEarthNet.uav[3] utilizationCountManeuversMaintenance 52
scalar OsgEarthNet.uav[3] utilizationCountChargeState 26
scalar OsgEarthNet.uav[3] utilizationCountOverdrawnAfterMission 1
scalar OsgEarthNet.uav[3] utilizationCountIdleState 26
scalar OsgEarthNet.uav[3] utilizationFail 0
scalar OsgEarthNet.uav[3] simulationTime 150424.31884642
scalar OsgEarthNet.uav[4] utilizationSecMission 3936.8256789301
scalar OsgEarthNet.uav[4] utilizationSecMaintenance 2197.8208511766
scalar OsgEarthNet.uav[4] utilizationSecCharge 22150
scalar OsgEarthNet.uav[4] utilizationSecIdle 122139.67131631
scalar OsgEarthNet.uav[4] utilizationEnergyMission 19485.078659058
scalar OsgEarthNet.uav[4] utilizationEnergyMaintenance 10104.187580109
scalar OsgEarthNet.uav[4] utilizationEnergyCharge 29194.267578125
scalar OsgEarthNet.uav[4] utilizationEnergyOverdrawMission 0
scalar OsgEarthNet.uav[4] utilizationEnergyOverdrawMaintenance 0
scalar OsgEarthNet.uav[4] utilizationCountMissions 6
scalar OsgEarthNet.uav[4] utilizationCountManeuversMission 116
scalar OsgEarthNet.uav[4] utilizationCountManeuversMaintenance 12
scalar OsgEarthNet.uav[4] utilizationCountChargeState 6
scalar OsgEarthNet.uav[4] utilizationCountOverdrawnAfterMission 0
scalar OsgEarthNet.uav[4] utilizationCountIdleState 7
scalar OsgEarthNet.uav[4] utilizationFail 0
scalar OsgEarthNet.uav[4] simulationTime 150424.31884642
scalar OsgEarthNet.uav[5] utilizationSecMission 16475.36943739
scalar OsgEarthNet.uav[5] utilizationSecMaintenance 13156.948409026
scalar OsgEarthNet.uav[5] utilizationSecCharge 105540
scalar OsgEarthNet.uav[5] utilizationSecIdle 15252
scalar OsgEarthNet.uav[5] utilizationEnergyMission 79573.914498923
scalar OsgEarthNet.uav[5] utilizationEnergyMaintenance 59879.759845734
scalar OsgEarthNet.uav[5] utilizationEnergyCharge 139077.21191406
scalar OsgEarthNet.uav[5] utilizationEnergyOverdrawMission 0
scalar OsgEarthNet.uav[5] utilizationEnergyOverdrawMaintenance 0
scalar OsgEarthNet.uav[5] utilizationCountMissions 29
scalar OsgEarthNet.uav[5] utilizationCountManeuversMission 513
scalar OsgEarthNet.uav[5] utilizationCountManeuversMaintenance 58
scalar OsgEarthNet.uav[5] utilizationCountChargeState 29
scalar OsgEarthNet.uav[5] utilizationCountOverdrawnAfterMission 0
scalar OsgEarthNet.uav[5] utilizationCountIdleState 30
scalar OsgEarthNet.uav[5] utilizationFail 0
scalar OsgEarthNet.uav[5] simulationTime 150424.31884642
scalar OsgEarthNet.uav[6] utilizationSecMission 16259.537903114
scalar OsgEarthNet.uav[6] utilizationSecMaintenance 12397.179706886
scalar OsgEarthNet.uav[6] utilizationSecCharge 100355.46042327
scalar OsgEarthNet.uav[6] utilizationSecIdle 21412.139813144
scalar OsgEarthNet.uav[6] utilizationEnergyMission 78868.939243317
scalar OsgEarthNet.uav[6] utilizationEnergyMaintenance 57779.639888763
scalar OsgEarthNet.uav[6] utilizationEnergyCharge 132677.81225586
scalar OsgEarthNet.uav[6] utilizationEnergyOverdrawMission 0
scalar OsgEarthNet.uav[6] utilizationEnergyOverdrawMaintenance 0
scalar OsgEarthNet.uav[6] utilizationCountMissions 28
scalar OsgEarthNet.uav[6] utilizationCountManeuversMission 538
scalar OsgEarthNet.uav[6] utilizationCountManeuversMaintenance 56
scalar OsgEarthNet.uav[6] utilizationCountChargeState 28
scalar OsgEarthNet.uav[6] utilizationCountOverdrawnAfterMission 0
scalar OsgEarthNet.uav[6] utilizationCountIdleState 28
scalar OsgEarthNet.uav[6] utilizationFail 0
scalar OsgEarthNet.uav[6] simulationTime 150424.31884642
scalar OsgEarthNet.uav[7] utilizationSecMission 15344.813177009
scalar OsgEarthNet.uav[7] utilizationSecMaintenance 11376.3943508
scalar OsgEarthNet.uav[7] utilizationSecCharge 95761.102318607
scalar OsgEarthNet.uav[7] utilizationSecIdle 27942.008
scalar OsgEarthNet.uav[7] utilizationEnergyMission 74465.897651672
scalar OsgEarthNet.uav[7] utilizationEnergyMaintenance 52516.627494812
scalar OsgEarthNet.uav[7] utilizationEnergyCharge 127398.97900391
scalar OsgEarthNet.uav[7] utilizationEnergyOverdrawMission 0
scalar OsgEarthNet.uav[7] utilizationEnergyOverdrawMaintenance 0
scalar OsgEarthNet.uav[7] utilizationCountMissions 26
scalar OsgEarthNet.uav[7] utilizationCountManeuversMission 541
scalar OsgEarthNet.uav[7] utilizationCountManeuversMaintenance 52
scalar OsgEarthNet.uav[7] utilizationCountChargeState 26
scalar OsgEarthNet.uav[7] utilizationCountOverdrawnAfterMission 0
scalar OsgEarthNet.uav[7] utilizationCountIdleState 26
scalar OsgEarthNet.uav[7] utilizationFail 0
scalar OsgEarthNet.uav[7] simulationTime 150424.31884642
scalar OsgEarthNet.uav[8] utilizationSecMission 11864.164398611
scalar OsgEarthNet.uav[8] utilizationSecMaintenance 7486.6281165732
scalar OsgEarthNet.uav[8] utilizationSecCharge 65500
scalar OsgEarthNet.uav[8] utilizationSecIdle 65573.525331232
scalar OsgEarthNet.uav[8] utilizationEnergyMission 56122.392879486
scalar OsgEarthNet.uav[8] utilizationEnergyMaintenance 34130.423131153
scalar OsgEarthNet.uav[8] utilizationEnergyCharge 86310.1796875
scalar OsgEarthNet.uav[8] utilizationEnergyOverdrawMission 0
scalar OsgEarthNet.uav[8] utilizationEnergyOverdrawMaintenance 203.38670349121
scalar OsgEarthNet.uav[8] utilizationCountMissions 19
scalar OsgEarthNet.uav[8] utilizationCountManeuversMission 319
scalar OsgEarthNet.uav[8] utilizationCountManeuversMaintenance 38
scalar OsgEarthNet.uav[8] utilizationCountChargeState 18
scalar OsgEarthNet.uav[8] utilizationCountOverdrawnAfterMission 1
scalar OsgEarthNet.uav[8] utilizationCountIdleState 19
scalar OsgEarthNet.uav[8] utilizationFail 0
scalar OsgEarthNet.uav[8] simulationTime 150424.31884642
scalar OsgEarthNet.uav[9] utilizationSecMission 663.26978133574
scalar OsgEarthNet.uav[9] utilizationSecMaintenance 423.24847292659
scalar OsgEarthNet.uav[9] utilizationSecCharge 3710
scalar OsgEarthNet.uav[9] utilizationSecIdle 145627.79959215
scalar OsgEarthNet.uav[9] utilizationEnergyMission 2889.9415435791
scalar OsgEarthNet.uav[9] utilizationEnergyMaintenance 2007.1557235718
scalar OsgEarthNet.uav[9] utilizationEnergyCharge 4897.09765625
scalar OsgEarthNet.uav[9] utilizationEnergyOverdrawMission 0
scalar OsgEarthNet.uav[9] utilizationEnergyOverdrawMaintenance 0
scalar OsgEarthNet.uav[9] utilizationCountMissions 1
scalar OsgEarthNet.uav[9] utilizationCountManeuversMission 10
scalar OsgEarthNet.uav[9] utilizationCountManeuversMaintenance 2
scalar OsgEarthNet.uav[9] utilizationCountChargeState 1
scalar OsgEarthNet.uav[9] utilizationCountOverdrawnAfterMission 0
scalar OsgEarthNet.uav[9] utilizationCountIdleState 2
scalar OsgEarthNet.uav[9] utilizationFail 0
scalar OsgEarthNet.uav[9] simulationTime 150424.31884642
scalar OsgEarthNet.uav[10] utilizationSecMission 11503.174616012
scalar OsgEarthNet.uav[10] utilizationSecMaintenance 5949.6329194441
scalar OsgEarthNet.uav[10] utilizationSecCharge 61486.865889037
scalar OsgEarthNet.uav[10] utilizationSecIdle 71484.644421923
scalar OsgEarthNet.uav[10] utilizationEnergyMission 55247.622840881
scalar OsgEarthNet.uav[10] utilizationEnergyMaintenance 28086.912864685
scalar OsgEarthNet.uav[10] utilizationEnergyCharge 82157.702636719
scalar OsgEarthNet.uav[10] utilizationEnergyOverdrawMission 0
scalar OsgEarthNet.uav[10] utilizationEnergyOverdrawMaintenance 8.2941398620605
scalar OsgEarthNet.uav[10] utilizationCountMissions 17
scalar OsgEarthNet.uav[10] utilizationCountManeuversMission 356
scalar OsgEarthNet.uav[10] utilizationCountManeuversMaintenance 34
scalar OsgEarthNet.uav[10] utilizationCountChargeState 17
scalar OsgEarthNet.uav[10] utilizationCountOverdrawnAfterMission 1
scalar OsgEarthNet.uav[10] utilizationCountIdleState 17
scalar OsgEarthNet.uav[10] utilizationFail 0
scalar OsgEarthNet.uav[10] simulationTime 150424.31884642
scalar OsgEarthNet.uav[11] utilizationSecMission 11219.772414242
scalar OsgEarthNet.uav[11] utilizationSecMaintenance 10084.990493955
scalar OsgEarthNet.uav[11] utilizationSecCharge 74133.009417213
scalar OsgEarthNet.uav[11] utilizationSecIdle 54986.545521006
scalar OsgEarthNet.uav[11] utilizationEnergyMission 53278.610054016
scalar OsgEarthNet.uav[11] utilizationEnergyMaintenance 46765.813911438
scalar OsgEarthNet.uav[11] utilizationEnergyCharge 98282.587890625
scalar OsgEarthNet.uav[11] utilizationEnergyOverdrawMission 0
scalar OsgEarthNet.uav[11] utilizationEnergyOverdrawMaintenance 0
scalar OsgEarthNet.uav[11] utilizationCountMissions 21
scalar OsgEarthNet.uav[11] utilizationCountManeuversMission 365
scalar OsgEarthNet.uav[11] utilizationCountManeuversMaintenance 42
scalar OsgEarthNet.uav[11] utilizationCountChargeState 21
scalar OsgEarthNet.uav[11] utilizationCountOverdrawnAfterMission 0
scalar OsgEarthNet.uav[11] utilizationCountIdleState 21
scalar OsgEarthNet.uav[11] utilizationFail 0
scalar OsgEarthNet.uav[11] simulationTime 150424.31884642
scalar OsgEarthNet.uav[12] utilizationSecMission 16797.299606376
scalar OsgEarthNet.uav[12] utilizationSecMaintenance 12431.532919384
scalar OsgEarthNet.uav[12] utilizationSecCharge 104993.48532066
scalar OsgEarthNet.uav[12] utilizationSecIdle 16202
scalar OsgEarthNet.uav[12] utilizationEnergyMission 83505.444610596
scalar OsgEarthNet.uav[12] utilizationEnergyMaintenance 58336.154651642
scalar OsgEarthNet.uav[12] utilizationEnergyCharge 139762.76611328
scalar OsgEarthNet.uav[12] utilizationEnergyOverdrawMission 0
scalar OsgEarthNet.uav[12] utilizationEnergyOverdrawMaintenance 0
scalar OsgEarthNet.uav[12] utilizationCountMissions 29
scalar OsgEarthNet.uav[12] utilizationCountManeuversMission 622
scalar OsgEarthNet.uav[12] utilizationCountManeuversMaintenance 58
scalar OsgEarthNet.uav[12] utilizationCountChargeState 29
scalar OsgEarthNet.uav[12] utilizationCountOverdrawnAfterMission 0
scalar OsgEarthNet.uav[12] utilizationCountIdleState 29
scalar OsgEarthNet.uav[12] utilizationFail 0
scalar OsgEarthNet.uav[12] simulationTime 150424.31884642
scalar OsgEarthNet.uav[13] utilizationSecMission 4501.8561605625
scalar OsgEarthNet.uav[13] utilizationSecMaintenance 3535.8808803873
scalar OsgEarthNet.uav[13] utilizationSecCharge 29460
scalar OsgEarthNet.uav[13] utilizationSecIdle 112926.58080547
scalar OsgEarthNet.uav[13] utilizationEnergyMission 22839.868907928
scalar OsgEarthNet.uav[13] utilizationEnergyMaintenance 16241.187988281
scalar OsgEarthNet.uav[13] utilizationEnergyCharge 38970.314941406
scalar OsgEarthNet.uav[13] utilizationEnergyOverdrawMission 0
scalar OsgEarthNet.uav[13] utilizationEnergyOverdrawMaintenance 0
scalar OsgEarthNet.uav[13] utilizationCountMissions 8
scalar OsgEarthNet.uav[13] utilizationCountManeuversMission 163
scalar OsgEarthNet.uav[13] utilizationCountManeuversMaintenance 16
scalar OsgEarthNet.uav[13] utilizationCountChargeState 8
scalar OsgEarthNet.uav[13] utilizationCountOverdrawnAfterMission 0
scalar OsgEarthNet.uav[13] utilizationCountIdleState 9
scalar OsgEarthNet.uav[13] utilizationFail 0
scalar OsgEarthNet.uav[13] simulationTime 150424.31884642
scalar OsgEarthNet.uav[14] utilizationSecMission 16363.758028547
scalar OsgEarthNet.uav[14] utilizationSecMaintenance 12224.309725698
scalar OsgEarthNet.uav[14] utilizationSecCharge 100874.24609217
scalar OsgEarthNet.uav[14] utilizationSecIdle 20962.004
scalar OsgEarthNet.uav[14] utilizationEnergyMission 79489.819587708
scalar OsgEarthNet.uav[14] utilizationEnergyMaintenance 57300.96497345
scalar OsgEarthNet.uav[14] utilizationEnergyCharge 133988.41674805
scalar OsgEarthNet.uav[14] utilizationEnergyOverdrawMission 0
scalar OsgEarthNet.uav[14] utilizationEnergyOverdrawMaintenance 121.00373840332
scalar OsgEarthNet.uav[14] utilizationCountMissions 28
scalar OsgEarthNet.uav[14] utilizationCountManeuversMission 562
scalar OsgEarthNet.uav[14] utilizationCountManeuversMaintenance 56
scalar OsgEarthNet.uav[14] utilizationCountChargeState 28
scalar OsgEarthNet.uav[14] utilizationCountOverdrawnAfterMission 1
scalar OsgEarthNet.uav[14] utilizationCountIdleState 28
scalar OsgEarthNet.uav[14] utilizationFail 0
scalar OsgEarthNet.uav[14] simulationTime 150424.31884642
scalar OsgEarthNet.uav[15] utilizationSecMission 887.1741082606
scalar OsgEarthNet.uav[15] utilizationSecMaintenance 181.20511066264
scalar OsgEarthNet.uav[15] utilizationSecCharge 3650
scalar OsgEarthNet.uav[15] utilizationSecIdle 145705.93862749
scalar OsgEarthNet.uav[15] utilizationEnergyMission 4144.0084381104
scalar OsgEarthNet.uav[15] utilizationEnergyMaintenance 810.90864181519
scalar OsgEarthNet.uav[15] utilizationEnergyCharge 4787.7099609375
scalar OsgEarthNet.uav[15] utilizationEnergyOverdrawMission 0
scalar OsgEarthNet.uav[15] utilizationEnergyOverdrawMaintenance 0
scalar OsgEarthNet.uav[15] utilizationCountMissions 1
scalar OsgEarthNet.uav[15] utilizationCountManeuversMission 14
scalar OsgEarthNet.uav[15] utilizationCountManeuversMaintenance 2
scalar OsgEarthNet.uav[15] utilizationCountChargeState 1
scalar OsgEarthNet.uav[15] utilizationCountOverdrawnAfterMission 0
scalar OsgEarthNet.uav[15] utilizationCountIdleState 2
scalar OsgEarthNet.uav[15] utilizationFail 0
scalar OsgEarthNet.uav[15] simulationTime 150424.31884642
scalar OsgEarthNet.uav[16] utilizationSecMission 16154.294138645
scalar OsgEarthNet.uav[16] utilizationSecMaintenance 11632.96159784
scalar OsgEarthNet.uav[16] utilizationSecCharge 97315.057109931
scalar OsgEarthNet.uav[16] utilizationSecIdle 25322.005
scalar OsgEarthNet.uav[16] utilizationEnergyMission 76513.227695465
scalar OsgEarthNet.uav[16] utilizationEnergyMaintenance 53493.091617584
scalar OsgEarthNet.uav[16] utilizationEnergyCharge 129515.7734375
scalar OsgEarthNet.uav[16] utilizationEnergyOverdrawMission 0
scalar OsgEarthNet.uav[16] utilizationEnergyOverdrawMaintenance 0
scalar OsgEarthNet.uav[16] utilizationCountMissions 27
scalar OsgEarthNet.uav[16] utilizationCountManeuversMission 440
scalar OsgEarthNet.uav[16] utilizationCountManeuversMaintenance 54
scalar OsgEarthNet.uav[16] utilizationCountChargeState 27
scalar OsgEarthNet.uav[16] utilizationCountOverdrawnAfterMission 0
scalar OsgEarthNet.uav[16] utilizationCountIdleState 27
scalar OsgEarthNet.uav[16] utilizationFail 0
scalar OsgEarthNet.uav[16] simulationTime 150424.31884642
scalar OsgEarthNet.uav[17] utilizationSecMission 16922.872304307
scalar OsgEarthNet.uav[17] utilizationSecMaintenance 10367.326101634
scalar OsgEarthNet.uav[17] utilizationSecCharge 94980.092798021
scalar OsgEarthNet.uav[17] utilizationSecIdle 28154.026642453
scalar OsgEarthNet.uav[17] utilizationEnergyMission 82620.500862122
scalar OsgEarthNet.uav[17] utilizationEnergyMaintenance 48475.002929687
scalar OsgEarthNet.uav[17] utilizationEnergyCharge 125541.57745361
scalar OsgEarthNet.uav[17] utilizationEnergyOverdrawMission 0
scalar OsgEarthNet.uav[17] utilizationEnergyOverdrawMaintenance 0
scalar OsgEarthNet.uav[17] utilizationCountMissions 27
scalar OsgEarthNet.uav[17] utilizationCountManeuversMission 518
scalar OsgEarthNet.uav[17] utilizationCountManeuversMaintenance 54
scalar OsgEarthNet.uav[17] utilizationCountChargeState 27
scalar OsgEarthNet.uav[17] utilizationCountOverdrawnAfterMission 0
scalar OsgEarthNet.uav[17] utilizationCountIdleState 27
scalar OsgEarthNet.uav[17] utilizationFail 0
scalar OsgEarthNet.uav[17] simulationTime 150424.31884642
scalar OsgEarthNet.uav[18] utilizationSecMission 17631.01891331
scalar OsgEarthNet.uav[18] utilizationSecMaintenance 12800.5839053
scalar OsgEarthNet.uav[18] utilizationSecCharge 107230.71502781
scalar OsgEarthNet.uav[18] utilizationSecIdle 12762
scalar OsgEarthNet.uav[18] utilizationEnergyMission 85858.850887336
scalar OsgEarthNet.uav[18] utilizationEnergyMaintenance 60329.677772522
scalar OsgEarthNet.uav[18] utilizationEnergyCharge 142112.56555176
scalar OsgEarthNet.uav[18] utilizationEnergyOverdrawMission 0
scalar OsgEarthNet.uav[18] utilizationEnergyOverdrawMaintenance 0
scalar OsgEarthNet.uav[18] utilizationCountMissions 30
scalar OsgEarthNet.uav[18] utilizationCountManeuversMission 554
scalar OsgEarthNet.uav[18] utilizationCountManeuversMaintenance 59
scalar OsgEarthNet.uav[18] utilizationCountChargeState 30
scalar OsgEarthNet.uav[18] utilizationCountOverdrawnAfterMission 0
scalar OsgEarthNet.uav[18] utilizationCountIdleState 30
scalar OsgEarthNet.uav[18] utilizationFail 0
scalar OsgEarthNet.uav[18] simulationTime 150424.31884642
scalar OsgEarthNet.uav[19] utilizationSecMission 558.91593840062
scalar OsgEarthNet.uav[19] utilizationSecMaintenance 463.18434677423
scalar OsgEarthNet.uav[19] utilizationSecCharge 3800
scalar OsgEarthNet.uav[19] utilizationSecIdle 145602.21756124
scalar OsgEarthNet.uav[19] utilizationEnergyMission 2614.9162139893
scalar OsgEarthNet.uav[19] utilizationEnergyMaintenance 2436.0135116577
scalar OsgEarthNet.uav[19] utilizationEnergyCharge 5050.9282226562
scalar OsgEarthNet.uav[19] utilizationEnergyOverdrawMission 0
scalar OsgEarthNet.uav[19] utilizationEnergyOverdrawMaintenance 0
scalar OsgEarthNet.uav[19] utilizationCountMissions 1
scalar OsgEarthNet.uav[19] utilizationCountManeuversMission 11
scalar OsgEarthNet.uav[19] utilizationCountManeuversMaintenance 2
scalar OsgEarthNet.uav[19] utilizationCountChargeState 1
scalar OsgEarthNet.uav[19] utilizationCountOverdrawnAfterMission 0
scalar OsgEarthNet.uav[19] utilizationCountIdleState 2
scalar OsgEarthNet.uav[19] utilizationFail 0
scalar OsgEarthNet.uav[19] simulationTime 150424.31884642
scalar OsgEarthNet.uav[20] utilizationSecMission 3097.9480414234
scalar OsgEarthNet.uav[20] utilizationSecMaintenance 2013.0993004509
scalar OsgEarthNet.uav[20] utilizationSecCharge 18240
scalar OsgEarthNet.uav[20] utilizationSecIdle 127073.27050454
scalar OsgEarthNet.uav[20] utilizationEnergyMission 14767.114860535
scalar OsgEarthNet.uav[20] utilizationEnergyMaintenance 9552.1727256775
scalar OsgEarthNet.uav[20] utilizationEnergyCharge 24054.567871094
scalar OsgEarthNet.uav[20] utilizationEnergyOverdrawMission 0
scalar OsgEarthNet.uav[20] utilizationEnergyOverdrawMaintenance 0
scalar OsgEarthNet.uav[20] utilizationCountMissions 5
scalar OsgEarthNet.uav[20] utilizationCountManeuversMission 72
scalar OsgEarthNet.uav[20] utilizationCountManeuversMaintenance 10
scalar OsgEarthNet.uav[20] utilizationCountChargeState 5
scalar OsgEarthNet.uav[20] utilizationCountOverdrawnAfterMission 0
scalar OsgEarthNet.uav[20] utilizationCountIdleState 6
scalar OsgEarthNet.uav[20] utilizationFail 0
scalar OsgEarthNet.uav[20] simulationTime 150424.31884642
scalar OsgEarthNet.uav[21] utilizationSecMission 12876.894981375
scalar OsgEarthNet.uav[21] utilizationSecMaintenance 9567.1093621325
scalar OsgEarthNet.uav[21] utilizationSecCharge 80957.232575365
scalar OsgEarthNet.uav[21] utilizationSecIdle 47023.080927543
scalar OsgEarthNet.uav[21] utilizationEnergyMission 63667.926715851
scalar OsgEarthNet.uav[21] utilizationEnergyMaintenance 44340.185424805
scalar OsgEarthNet.uav[21] utilizationEnergyCharge 107927.80810547
scalar OsgEarthNet.uav[21] utilizationEnergyOverdrawMission 0
scalar OsgEarthNet.uav[21] utilizationEnergyOverdrawMaintenance 0
scalar OsgEarthNet.uav[21] utilizationCountMissions 22
scalar OsgEarthNet.uav[21] utilizationCountManeuversMission 456
scalar OsgEarthNet.uav[21] utilizationCountManeuversMaintenance 44
scalar OsgEarthNet.uav[21] utilizationCountChargeState 22
scalar OsgEarthNet.uav[21] utilizationCountOverdrawnAfterMission 0
scalar OsgEarthNet.uav[21] utilizationCountIdleState 22
scalar OsgEarthNet.uav[21] utilizationFail 0
scalar OsgEarthNet.uav[21] simulationTime 150424.31884642
scalar OsgEarthNet.uav[22] utilizationSecMission 15103.039212963
scalar OsgEarthNet.uav[22] utilizationSecMaintenance 12184.666874831
scalar OsgEarthNet.uav[22] utilizationSecCharge 99274.610758621
scalar OsgEarthNet.uav[22] utilizationSecIdle 23862.001
scalar OsgEarthNet.uav[22] utilizationEnergyMission 73841.526573181
scalar OsgEarthNet.uav[22] utilizationEnergyMaintenance 56052.293045044
scalar OsgEarthNet.uav[22] utilizationEnergyCharge 131427.41455078
scalar OsgEarthNet.uav[22] utilizationEnergyOverdrawMission 0
scalar OsgEarthNet.uav[22] utilizationEnergyOverdrawMaintenance 26.311183929443
scalar OsgEarthNet.uav[22] utilizationCountMissions 27
scalar OsgEarthNet.uav[22] utilizationCountManeuversMission 529
scalar OsgEarthNet.uav[22] utilizationCountManeuversMaintenance 54
scalar OsgEarthNet.uav[22] utilizationCountChargeState 27
scalar OsgEarthNet.uav[22] utilizationCountOverdrawnAfterMission 2
scalar OsgEarthNet.uav[22] utilizationCountIdleState 27
scalar OsgEarthNet.uav[22] utilizationFail 0
scalar OsgEarthNet.uav[22] simulationTime 150424.31884642
scalar OsgEarthNet.uav[23] utilizationSecMission 2261.7233210089
scalar OsgEarthNet.uav[23] utilizationSecMaintenance 1832.9475415155
scalar OsgEarthNet.uav[23] utilizationSecCharge 14660
scalar OsgEarthNet.uav[23] utilizationSecIdle 131669.64698389
scalar OsgEarthNet.uav[23] utilizationEnergyMission 10948.732673645
scalar OsgEarthNet.uav[23] utilizationEnergyMaintenance 8736.1032676697
scalar OsgEarthNet.uav[23] utilizationEnergyCharge 19236.846191406
scalar OsgEarthNet.uav[23] utilizationEnergyOverdrawMission 0
scalar OsgEarthNet.uav[23] utilizationEnergyOverdrawMaintenance 0
scalar OsgEarthNet.uav[23] utilizationCountMissions 4
scalar OsgEarthNet.uav[23] utilizationCountManeuversMission 60
scalar OsgEarthNet.uav[23] utilizationCountManeuversMaintenance 8
scalar OsgEarthNet.uav[23] utilizationCountChargeState 4
scalar OsgEarthNet.uav[23] utilizationCountOverdrawnAfterMission 0
scalar OsgEarthNet.uav[23] utilizationCountIdleState 5
scalar OsgEarthNet.uav[23] utilizationFail 0
scalar OsgEarthNet.uav[23] simulationTime 150424.31884642
scalar OsgEarthNet.uav[24] utilizationSecMission 17385.520290327
scalar OsgEarthNet.uav[24] utilizationSecMaintenance 10987.315826872
scalar OsgEarthNet.uav[24] utilizationSecCharge 101679.47972922
scalar OsgEarthNet.uav[24] utilizationSecIdle 20372.002
scalar OsgEarthNet.uav[24] utilizationEnergyMission 86214.723171234
scalar OsgEarthNet.uav[24] utilizationEnergyMaintenance 50724.211502075
scalar OsgEarthNet.uav[24] utilizationEnergyCharge 135196.56884766
scalar OsgEarthNet.uav[24] utilizationEnergyOverdrawMission 0
scalar OsgEarthNet.uav[24] utilizationEnergyOverdrawMaintenance 0
scalar OsgEarthNet.uav[24] utilizationCountMissions 28
scalar OsgEarthNet.uav[24] utilizationCountManeuversMission 598
scalar OsgEarthNet.uav[24] utilizationCountManeuversMaintenance 56
scalar OsgEarthNet.uav[24] utilizationCountChargeState 28
scalar OsgEarthNet.uav[24] utilizationCountOverdrawnAfterMission 0
scalar OsgEarthNet.uav[24] utilizationCountIdleState 28
scalar OsgEarthNet.uav[24] utilizationFail 0
scalar OsgEarthNet.uav[24] simulationTime 150424.31884642
scalar OsgEarthNet.uav[25] utilizationSecMission 17042.839013429
scalar OsgEarthNet.uav[25] utilizationSecMaintenance 10607.796674547
scalar OsgEarthNet.uav[25] utilizationSecCharge 98810
scalar OsgEarthNet.uav[25] utilizationSecIdle 23963.68215844
scalar OsgEarthNet.uav[25] utilizationEnergyMission 81933.015735626
scalar OsgEarthNet.uav[25] utilizationEnergyMaintenance 50050.571533203
scalar OsgEarthNet.uav[25] utilizationEnergyCharge 130714.74414062
scalar OsgEarthNet.uav[25] utilizationEnergyOverdrawMission 0
scalar OsgEarthNet.uav[25] utilizationEnergyOverdrawMaintenance 115.93005180359
scalar OsgEarthNet.uav[25] utilizationCountMissions 27
scalar OsgEarthNet.uav[25] utilizationCountManeuversMission 432
scalar OsgEarthNet.uav[25] utilizationCountManeuversMaintenance 54
scalar OsgEarthNet.uav[25] utilizationCountChargeState 27
scalar OsgEarthNet.uav[25] utilizationCountOverdrawnAfterMission 2
scalar OsgEarthNet.uav[25] utilizationCountIdleState 28
scalar OsgEarthNet.uav[25] utilizationFail 0
scalar OsgEarthNet.uav[25] simulationTime 150424.31884642
scalar OsgEarthNet.uav[26] utilizationSecMission 680
scalar OsgEarthNet.uav[26] utilizationSecMaintenance 363.8841636065
scalar OsgEarthNet.uav[26] utilizationSecCharge 3780
scalar OsgEarthNet.uav[26] utilizationSecIdle 145600.43368281
scalar OsgEarthNet.uav[26] utilizationEnergyMission 3719.7968330383
scalar OsgEarthNet.uav[26] utilizationEnergyMaintenance 1528.4109611511
scalar OsgEarthNet.uav[26] utilizationEnergyCharge 5032.8012695312
scalar OsgEarthNet.uav[26] utilizationEnergyOverdrawMission 0
scalar OsgEarthNet.uav[26] utilizationEnergyOverdrawMaintenance 0
scalar OsgEarthNet.uav[26] utilizationCountMissions 1
scalar OsgEarthNet.uav[26] utilizationCountManeuversMission 34
scalar OsgEarthNet.uav[26] utilizationCountManeuversMaintenance 2
scalar OsgEarthNet.uav[26] utilizationCountChargeState 1
scalar OsgEarthNet.uav[26] utilizationCountOverdrawnAfterMission 0
scalar OsgEarthNet.uav[26] utilizationCountIdleState 2
scalar OsgEarthNet.uav[26] utilizationFail 0
scalar OsgEarthNet.uav[26] simulationTime 150424.31884642
scalar OsgEarthNet.uav[27] utilizationSecMission 6281.3336790182
scalar OsgEarthNet.uav[27] utilizationSecMaintenance 4717.7258084888
scalar OsgEarthNet.uav[27] utilizationSecCharge 40220
scalar OsgEarthNet.uav[27] utilizationSecIdle 99205.258358909
scalar OsgEarthNet.uav[27] utilizationEnergyMission 30714.525512695
scalar OsgEarthNet.uav[27] utilizationEnergyMaintenance 21866.649997711
scalar OsgEarthNet.uav[27] utilizationEnergyCharge 52802.774414062
scalar OsgEarthNet.uav[27] utilizationEnergyOverdrawMission 0
scalar OsgEarthNet.uav[27] utilizationEnergyOverdrawMaintenance 63.870311737061
scalar OsgEarthNet.uav[27] utilizationCountMissions 11
scalar OsgEarthNet.uav[27] utilizationCountManeuversMission 218
scalar OsgEarthNet.uav[27] utilizationCountManeuversMaintenance 22
scalar OsgEarthNet.uav[27] utilizationCountChargeState 11
scalar OsgEarthNet.uav[27] utilizationCountOverdrawnAfterMission 1
scalar OsgEarthNet.uav[27] utilizationCountIdleState 12
scalar OsgEarthNet.uav[27] utilizationFail 0
scalar OsgEarthNet.uav[27] simulationTime 150424.31884642
scalar OsgEarthNet.uav[28] utilizationSecMission 15659.312872179
scalar OsgEarthNet.uav[28] utilizationSecMaintenance 10792.372956783
scalar OsgEarthNet.uav[28] utilizationSecCharge 93850.629017454
scalar OsgEarthNet.uav[28] utilizationSecIdle 30122.003
scalar OsgEarthNet.uav[28] utilizationEnergyMission 75935.152755737
scalar OsgEarthNet.uav[28] utilizationEnergyMaintenance 49582.674308777
scalar OsgEarthNet.uav[28] utilizationEnergyCharge 125016.97119141
scalar OsgEarthNet.uav[28] utilizationEnergyOverdrawMission 0
scalar OsgEarthNet.uav[28] utilizationEnergyOverdrawMaintenance 0
scalar OsgEarthNet.uav[28] utilizationCountMissions 26
scalar OsgEarthNet.uav[28] utilizationCountManeuversMission 487
scalar OsgEarthNet.uav[28] utilizationCountManeuversMaintenance 52
scalar OsgEarthNet.uav[28] utilizationCountChargeState 26
scalar OsgEarthNet.uav[28] utilizationCountOverdrawnAfterMission 0
scalar OsgEarthNet.uav[28] utilizationCountIdleState 26
scalar OsgEarthNet.uav[28] utilizationFail 0
scalar OsgEarthNet.uav[28] simulationTime 150424.31884642
scalar OsgEarthNet.uav[29] utilizationSecMission 1122.6942798579
scalar OsgEarthNet.uav[29] utilizationSecMaintenance 1080.671048613
scalar OsgEarthNet.uav[29] utilizationSecCharge 7680
scalar OsgEarthNet.uav[29] utilizationSecIdle 140540.95251794
scalar OsgEarthNet.uav[29] utilizationEnergyMission 5665.7175292969
scalar OsgEarthNet.uav[29] utilizationEnergyMaintenance 4820.2610702515
scalar OsgEarthNet.uav[29] utilizationEnergyCharge 10229.847167969
scalar OsgEarthNet.uav[29] utilizationEnergyOverdrawMission 0
scalar OsgEarthNet.uav[29] utilizationEnergyOverdrawMaintenance 0
scalar OsgEarthNet.uav[29] utilizationCountMissions 2
scalar OsgEarthNet.uav[29] utilizationCountManeuversMission 31
scalar OsgEarthNet.uav[29] utilizationCountManeuversMaintenance 4
scalar OsgEarthNet.uav[29] utilizationCountChargeState 2
scalar OsgEarthNet.uav[29] utilizationCountOverdrawnAfterMission 0
scalar OsgEarthNet.uav[29] utilizationCountIdleState 3
scalar OsgEarthNet.uav[29] utilizationFail 0
scalar OsgEarthNet.uav[29] simulationTime 150424.31884642
scalar OsgEarthNet.uav[30] utilizationSecMission 11523.864849066
scalar OsgEarthNet.uav[30] utilizationSecMaintenance 10618.348965211
scalar OsgEarthNet.uav[30] utilizationSecCharge 77300.096032139
scalar OsgEarthNet.uav[30] utilizationSecIdle 50982.008
scalar OsgEarthNet.uav[30] utilizationEnergyMission 58579.622829437
scalar OsgEarthNet.uav[30] utilizationEnergyMaintenance 50291.770545959
scalar OsgEarthNet.uav[30] utilizationEnergyCharge 102092.28582764
scalar OsgEarthNet.uav[30] utilizationEnergyOverdrawMission 0
scalar OsgEarthNet.uav[30] utilizationEnergyOverdrawMaintenance 0
scalar OsgEarthNet.uav[30] utilizationCountMissions 22
scalar OsgEarthNet.uav[30] utilizationCountManeuversMission 475
scalar OsgEarthNet.uav[30] utilizationCountManeuversMaintenance 44
scalar OsgEarthNet.uav[30] utilizationCountChargeState 22
scalar OsgEarthNet.uav[30] utilizationCountOverdrawnAfterMission 0
scalar OsgEarthNet.uav[30] utilizationCountIdleState 22
scalar OsgEarthNet.uav[30] utilizationFail 0
scalar OsgEarthNet.uav[30] simulationTime 150424.31884642
scalar OsgEarthNet.uav[31] utilizationSecMission 16654.571806474
scalar OsgEarthNet.uav[31] utilizationSecMaintenance 13082.830892425
scalar OsgEarthNet.uav[31] utilizationSecCharge 105844.91414752
scalar OsgEarthNet.uav[31] utilizationSecIdle 14842.001
scalar OsgEarthNet.uav[31] utilizationEnergyMission 79658.792964935
scalar OsgEarthNet.uav[31] utilizationEnergyMaintenance 61584.801052093
scalar OsgEarthNet.uav[31] utilizationEnergyCharge 140819.15478516
scalar OsgEarthNet.uav[31] utilizationEnergyOverdrawMission 0
scalar OsgEarthNet.uav[31] utilizationEnergyOverdrawMaintenance 28.878252029419
scalar OsgEarthNet.uav[31] utilizationCountMissions 29
scalar OsgEarthNet.uav[31] utilizationCountManeuversMission 512
scalar OsgEarthNet.uav[31] utilizationCountManeuversMaintenance 58
scalar OsgEarthNet.uav[31] utilizationCountChargeState 29
scalar OsgEarthNet.uav[31] utilizationCountOverdrawnAfterMission 1
scalar OsgEarthNet.uav[31] utilizationCountIdleState 29
scalar OsgEarthNet.uav[31] utilizationFail 0
scalar OsgEarthNet.uav[31] simulationTime 150424.31884642
scalar OsgEarthNet.uav[32] utilizationSecMission 10212.595058108
scalar OsgEarthNet.uav[32] utilizationSecMaintenance 7061.9064151445
scalar OsgEarthNet.uav[32] utilizationSecCharge 62000
scalar OsgEarthNet.uav[32] utilizationSecIdle 71149.816373164
scalar OsgEarthNet.uav[32] utilizationEnergyMission 49686.892936707
scalar OsgEarthNet.uav[32] utilizationEnergyMaintenance 32050.025432587
scalar OsgEarthNet.uav[32] utilizationEnergyCharge 81864.577636719
scalar OsgEarthNet.uav[32] utilizationEnergyOverdrawMission 0
scalar OsgEarthNet.uav[32] utilizationEnergyOverdrawMaintenance 0
scalar OsgEarthNet.uav[32] utilizationCountMissions 17
scalar OsgEarthNet.uav[32] utilizationCountManeuversMission 349
scalar OsgEarthNet.uav[32] utilizationCountManeuversMaintenance 34
scalar OsgEarthNet.uav[32] utilizationCountChargeState 17
scalar OsgEarthNet.uav[32] utilizationCountOverdrawnAfterMission 0
scalar OsgEarthNet.uav[32] utilizationCountIdleState 18
scalar OsgEarthNet.uav[32] utilizationFail 0
scalar OsgEarthNet.uav[32] simulationTime 150424.31884642
scalar OsgEarthNet.uav[33] utilizationSecMission 7018.3873601266
scalar OsgEarthNet.uav[33] utilizationSecMaintenance 4950.0232950825
scalar OsgEarthNet.uav[33] utilizationSecCharge 40302.833161533
scalar OsgEarthNet.uav[33] utilizationSecIdle 98153.074029673
scalar OsgEarthNet.uav[33] utilizationEnergyMission 34892.68384552
scalar OsgEarthNet.uav[33] utilizationEnergyMaintenance 22894.046981812
scalar OsgEarthNet.uav[33] utilizationEnergyCharge 53302.391235352
scalar OsgEarthNet.uav[33] utilizationEnergyOverdrawMission 0
scalar OsgEarthNet.uav[33] utilizationEnergyOverdrawMaintenance 0
scalar OsgEarthNet.uav[33] utilizationCountMissions 12
scalar OsgEarthNet.uav[33] utilizationCountManeuversMission 217
scalar OsgEarthNet.uav[33] utilizationCountManeuversMaintenance 24
scalar OsgEarthNet.uav[33] utilizationCountChargeState 12
scalar OsgEarthNet.uav[33] utilizationCountOverdrawnAfterMission 0
scalar OsgEarthNet.uav[33] utilizationCountIdleState 12
scalar OsgEarthNet.uav[33] utilizationFail 0
scalar OsgEarthNet.uav[33] simulationTime 150424.31884642
scalar OsgEarthNet.uav[34] utilizationSecMission 7750.7346159338
scalar OsgEarthNet.uav[34] utilizationSecMaintenance 6493.8862989817
scalar OsgEarthNet.uav[34] utilizationSecCharge 47845.216729346
scalar OsgEarthNet.uav[34] utilizationSecIdle 88334.480202154
scalar OsgEarthNet.uav[34] utilizationEnergyMission 36665.775341034
scalar OsgEarthNet.uav[34] utilizationEnergyMaintenance 30580.415687561
scalar OsgEarthNet.uav[34] utilizationEnergyCharge 63492.365112305
scalar OsgEarthNet.uav[34] utilizationEnergyOverdrawMission 0
scalar OsgEarthNet.uav[34] utilizationEnergyOverdrawMaintenance 107.71879196167
scalar OsgEarthNet.uav[34] utilizationCountMissions 14
scalar OsgEarthNet.uav[34] utilizationCountManeuversMission 240
scalar OsgEarthNet.uav[34] utilizationCountManeuversMaintenance 28
scalar OsgEarthNet.uav[34] utilizationCountChargeState 14
scalar OsgEarthNet.uav[34] utilizationCountOverdrawnAfterMission 2
scalar OsgEarthNet.uav[34] utilizationCountIdleState 14
scalar OsgEarthNet.uav[34] utilizationFail 0
scalar OsgEarthNet.uav[34] simulationTime 150424.31884642
scalar OsgEarthNet.uav[35] utilizationSecMission 15583.257181111
scalar OsgEarthNet.uav[35] utilizationSecMaintenance 11659.842152289
scalar OsgEarthNet.uav[35] utilizationSecCharge 98442.043402605
scalar OsgEarthNet.uav[35] utilizationSecIdle 24739.175110411
scalar OsgEarthNet.uav[35] utilizationEnergyMission 77094.206310272
scalar OsgEarthNet.uav[35] utilizationEnergyMaintenance 55140.095222473
scalar OsgEarthNet.uav[35] utilizationEnergyCharge 130716.63623047
scalar OsgEarthNet.uav[35] utilizationEnergyOverdrawMission 0
scalar OsgEarthNet.uav[35] utilizationEnergyOverdrawMaintenance 0
scalar OsgEarthNet.uav[35] utilizationCountMissions 27
scalar OsgEarthNet.uav[35] utilizationCountManeuversMission 495
scalar OsgEarthNet.uav[35] utilizationCountManeuversMaintenance 54
scalar OsgEarthNet.uav[35] utilizationCountChargeState 27
scalar OsgEarthNet.uav[35] utilizationCountOverdrawnAfterMission 0
scalar OsgEarthNet.uav[35] utilizationCountIdleState 27
scalar OsgEarthNet.uav[35] utilizationFail 0
scalar OsgEarthNet.uav[35] simulationTime 150424.31884642
scalar OsgEarthNet.uav[36] utilizationSecMission 16354.314653263
scalar OsgEarthNet.uav[36] utilizationSecMaintenance 11510.17698055
scalar OsgEarthNet.uav[36] utilizationSecCharge 99097.822212603
scalar OsgEarthNet.uav[36] utilizationSecIdle 23462.004
scalar OsgEarthNet.uav[36] utilizationEnergyMission 79258.502269745
scalar OsgEarthNet.uav[36] utilizationEnergyMaintenance 53102.760166168
scalar OsgEarthNet.uav[36] utilizationEnergyCharge 131290.62109375
scalar OsgEarthNet.uav[36] utilizationEnergyOverdrawMission 0
scalar OsgEarthNet.uav[36] utilizationEnergyOverdrawMaintenance 0
scalar OsgEarthNet.uav[36] utilizationCountMissions 27
scalar OsgEarthNet.uav[36] utilizationCountManeuversMission 485
scalar OsgEarthNet.uav[36] utilizationCountManeuversMaintenance 54
scalar OsgEarthNet.uav[36] utilizationCountChargeState 27
scalar OsgEarthNet.uav[36] utilizationCountOverdrawnAfterMission 0
scalar OsgEarthNet.uav[36] utilizationCountIdleState 27
scalar OsgEarthNet.uav[36] utilizationFail 0
scalar OsgEarthNet.uav[36] simulationTime 150424.31884642
scalar OsgEarthNet.uav[37] utilizationSecMission 621.17604176187
scalar OsgEarthNet.uav[37] utilizationSecMaintenance 378.2815995389
scalar OsgEarthNet.uav[37] utilizationSecCharge 3650
scalar OsgEarthNet.uav[37] utilizationSecIdle 145774.86020512
scalar OsgEarthNet.uav[37] utilizationEnergyMission 2995.7779846191
scalar OsgEarthNet.uav[37] utilizationEnergyMaintenance 1802.4965324402
scalar OsgEarthNet.uav[37] utilizationEnergyCharge 4798.2778320312
scalar OsgEarthNet.uav[37] utilizationEnergyOverdrawMission 0
scalar OsgEarthNet.uav[37] utilizationEnergyOverdrawMaintenance 0
scalar OsgEarthNet.uav[37] utilizationCountMissions 1
scalar OsgEarthNet.uav[37] utilizationCountManeuversMission 12
scalar OsgEarthNet.uav[37] utilizationCountManeuversMaintenance 2
scalar OsgEarthNet.uav[37] utilizationCountChargeState 1
scalar OsgEarthNet.uav[37] utilizationCountOverdrawnAfterMission 0
scalar OsgEarthNet.uav[37] utilizationCountIdleState 2
scalar OsgEarthNet.uav[37] utilizationFail 0
scalar OsgEarthNet.uav[37] simulationTime 150424.31884642
scalar OsgEarthNet.uav[38] utilizationSecMission 15185.123160102
scalar OsgEarthNet.uav[38] utilizationSecMaintenance 11039.110346865
scalar OsgEarthNet.uav[38] utilizationSecCharge 93063.734118628
scalar OsgEarthNet.uav[38] utilizationSecIdle 31136.350220821
scalar OsgEarthNet.uav[38] utilizationEnergyMission 74472.358509064
scalar OsgEarthNet.uav[38] utilizationEnergyMaintenance 51809.435153961
scalar OsgEarthNet.uav[38] utilizationEnergyCharge 123656.66455078
scalar OsgEarthNet.uav[38] utilizationEnergyOverdrawMission 0
scalar OsgEarthNet.uav[38] utilizationEnergyOverdrawMaintenance 0
scalar OsgEarthNet.uav[38] utilizationCountMissions 26
scalar OsgEarthNet.uav[38] utilizationCountManeuversMission 544
scalar OsgEarthNet.uav[38] utilizationCountManeuversMaintenance 52
scalar OsgEarthNet.uav[38] utilizationCountChargeState 26
scalar OsgEarthNet.uav[38] utilizationCountOverdrawnAfterMission 0
scalar OsgEarthNet.uav[38] utilizationCountIdleState 26
scalar OsgEarthNet.uav[38] utilizationFail 0
scalar OsgEarthNet.uav[38] simulationTime 150424.31884642
scalar OsgEarthNet.uav[39] utilizationSecMission 14851.164691663
scalar OsgEarthNet.uav[39] utilizationSecMaintenance 9118.3112721014
scalar OsgEarthNet.uav[39] utilizationSecCharge 86320.823612924
scalar OsgEarthNet.uav[39] utilizationSecIdle 40134.018269728
scalar OsgEarthNet.uav[39] utilizationEnergyMission 71925.130718231
scalar OsgEarthNet.uav[39] utilizationEnergyMaintenance 42890.302768707
scalar OsgEarthNet.uav[39] utilizationEnergyCharge 114941.95043945
scalar OsgEarthNet.uav[39] utilizationEnergyOverdrawMission 0
scalar OsgEarthNet.uav[39] utilizationEnergyOverdrawMaintenance 0
scalar OsgEarthNet.uav[39] utilizationCountMissions 24
scalar OsgEarthNet.uav[39] utilizationCountManeuversMission 494
scalar OsgEarthNet.uav[39] utilizationCountManeuversMaintenance 48
scalar OsgEarthNet.uav[39] utilizationCountChargeState 24
scalar OsgEarthNet.uav[39] utilizationCountOverdrawnAfterMission 0
scalar OsgEarthNet.uav[39] utilizationCountIdleState 24
scalar OsgEarthNet.uav[39] utilizationFail 0
scalar OsgEarthNet.uav[39] simulationTime 150424.31884642
scalar OsgEarthNet.uav[40] utilizationSecMission 16729.768662632
scalar OsgEarthNet.uav[40] utilizationSecMaintenance 12673.035522834
scalar OsgEarthNet.uav[40] utilizationSecCharge 102910
scalar OsgEarthNet.uav[40] utilizationSecIdle 18111.51366095
scalar OsgEarthNet.uav[40] utilizationEnergyMission 80371.023539796
scalar OsgEarthNet.uav[40] utilizationEnergyMaintenance 59366.127105713
scalar OsgEarthNet.uav[40] utilizationEnergyCharge 135885.10742188
scalar OsgEarthNet.uav[40] utilizationEnergyOverdrawMission 0
scalar OsgEarthNet.uav[40] utilizationEnergyOverdrawMaintenance 28.51268196106
scalar OsgEarthNet.uav[40] utilizationCountMissions 28
scalar OsgEarthNet.uav[40] utilizationCountManeuversMission 476
scalar OsgEarthNet.uav[40] utilizationCountManeuversMaintenance 57
scalar OsgEarthNet.uav[40] utilizationCountChargeState 28
scalar OsgEarthNet.uav[40] utilizationCountOverdrawnAfterMission 1
scalar OsgEarthNet.uav[40] utilizationCountIdleState 29
scalar OsgEarthNet.uav[40] utilizationFail 0
scalar OsgEarthNet.uav[40] simulationTime 150424.31884642
scalar OsgEarthNet.uav[41] utilizationSecMission 460
scalar OsgEarthNet.uav[41] utilizationSecMaintenance 507.16988087142
scalar OsgEarthNet.uav[41] utilizationSecCharge 3570
scalar OsgEarthNet.uav[41] utilizationSecIdle 145887.14796554
scalar OsgEarthNet.uav[41] utilizationEnergyMission 2388.7715873718
scalar OsgEarthNet.uav[41] utilizationEnergyMaintenance 2464.5665397644
scalar OsgEarthNet.uav[41] utilizationEnergyCharge 4686.513671875
scalar OsgEarthNet.uav[41] utilizationEnergyOverdrawMission 0
scalar OsgEarthNet.uav[41] utilizationEnergyOverdrawMaintenance 0
scalar OsgEarthNet.uav[41] utilizationCountMissions 1
scalar OsgEarthNet.uav[41] utilizationCountManeuversMission 23
scalar OsgEarthNet.uav[41] utilizationCountManeuversMaintenance 2
scalar OsgEarthNet.uav[41] utilizationCountChargeState 1
scalar OsgEarthNet.uav[41] utilizationCountOverdrawnAfterMission 0
scalar OsgEarthNet.uav[41] utilizationCountIdleState 2
scalar OsgEarthNet.uav[41] utilizationFail 0
scalar OsgEarthNet.uav[41] simulationTime 150424.31884642
scalar OsgEarthNet.uav[42] utilizationSecMission 14534.592721825
scalar OsgEarthNet.uav[42] utilizationSecMaintenance 9775.8804316751
scalar OsgEarthNet.uav[42] utilizationSecCharge 84727.139330374
scalar OsgEarthNet.uav[42] utilizationSecIdle 41386.705362542
scalar OsgEarthNet.uav[42] utilizationEnergyMission 69123.625400543
scalar OsgEarthNet.uav[42] utilizationEnergyMaintenance 45029.894180298
scalar OsgEarthNet.uav[42] utilizationEnergyCharge 112102.17260742
scalar OsgEarthNet.uav[42] utilizationEnergyOverdrawMission 0
scalar OsgEarthNet.uav[42] utilizationEnergyOverdrawMaintenance 0
scalar OsgEarthNet.uav[42] utilizationCountMissions 24
scalar OsgEarthNet.uav[42] utilizationCountManeuversMission 431
scalar OsgEarthNet.uav[42] utilizationCountManeuversMaintenance 48
scalar OsgEarthNet.uav[42] utilizationCountChargeState 24
scalar OsgEarthNet.uav[42] utilizationCountOverdrawnAfterMission 0
scalar OsgEarthNet.uav[42] utilizationCountIdleState 24
scalar OsgEarthNet.uav[42] utilizationFail 0
scalar OsgEarthNet.uav[42] simulationTime 150424.31884642
scalar OsgEarthNet.uav[43] utilizationSecMission 14278.316089375
scalar OsgEarthNet.uav[43] utilizationSecMaintenance 10941.444766023
scalar OsgEarthNet.uav[43] utilizationSecCharge 90497.496856645
scalar OsgEarthNet.uav[43] utilizationSecIdle 34707.060134373
scalar OsgEarthNet.uav[43] utilizationEnergyMission 70446.751895905
scalar OsgEarthNet.uav[43] utilizationEnergyMaintenance 50943.117900848
scalar OsgEarthNet.uav[43] utilizationEnergyCharge 120622.34472656
scalar OsgEarthNet.uav[43] utilizationEnergyOverdrawMission 0
scalar OsgEarthNet.uav[43] utilizationEnergyOverdrawMaintenance 0
scalar OsgEarthNet.uav[43] utilizationCountMissions 25
scalar OsgEarthNet.uav[43] utilizationCountManeuversMission 472
scalar OsgEarthNet.uav[43] utilizationCountManeuversMaintenance 50
scalar OsgEarthNet.uav[43] utilizationCountChargeState 25
scalar OsgEarthNet.uav[43] utilizationCountOverdrawnAfterMission 0
scalar OsgEarthNet.uav[43] utilizationCountIdleState 25
scalar OsgEarthNet.uav[43] utilizationFail 0
scalar OsgEarthNet.uav[43] simulationTime 150424.31884642
scalar OsgEarthNet.uav[44] utilizationSecMission 14961.781267999
scalar OsgEarthNet.uav[44] utilizationSecMaintenance 11620.531578417
scalar OsgEarthNet.uav[44] utilizationSecCharge 95850
scalar OsgEarthNet.uav[44] utilizationSecIdle 27992.005
scalar OsgEarthNet.uav[44] utilizationEnergyMission 72674.827480445
scalar OsgEarthNet.uav[44] utilizationEnergyMaintenance 54690.669345856
scalar OsgEarthNet.uav[44] utilizationEnergyCharge 126500.66992188
scalar OsgEarthNet.uav[44] utilizationEnergyOverdrawMission 0
scalar OsgEarthNet.uav[44] utilizationEnergyOverdrawMaintenance 91.466278076172
scalar OsgEarthNet.uav[44] utilizationCountMissions 26
scalar OsgEarthNet.uav[44] utilizationCountManeuversMission 491
scalar OsgEarthNet.uav[44] utilizationCountManeuversMaintenance 53
scalar OsgEarthNet.uav[44] utilizationCountChargeState 26
scalar OsgEarthNet.uav[44] utilizationCountOverdrawnAfterMission 1
scalar OsgEarthNet.uav[44] utilizationCountIdleState 27
scalar OsgEarthNet.uav[44] utilizationFail 0
scalar OsgEarthNet.uav[44] simulationTime 150424.31884642
scalar OsgEarthNet.uav[45] utilizationSecMission 8226.7759578677
scalar OsgEarthNet.uav[45] utilizationSecMaintenance 4741.2048539138
scalar OsgEarthNet.uav[45] utilizationSecCharge 47610
scalar OsgEarthNet.uav[45] utilizationSecIdle 89846.337034634
scalar OsgEarthNet.uav[45] utilizationEnergyMission 40277.902774811
scalar OsgEarthNet.uav[45] utilizationEnergyMaintenance 21401.48809433
scalar OsgEarthNet.uav[45] utilizationEnergyCharge 62874.9140625
scalar OsgEarthNet.uav[45] utilizationEnergyOverdrawMission 0
scalar OsgEarthNet.uav[45] utilizationEnergyOverdrawMaintenance 0
scalar OsgEarthNet.uav[45] utilizationCountMissions 13
scalar OsgEarthNet.uav[45] utilizationCountManeuversMission 287
scalar OsgEarthNet.uav[45] utilizationCountManeuversMaintenance 26
scalar OsgEarthNet.uav[45] utilizationCountChargeState 13
scalar OsgEarthNet.uav[45] utilizationCountOverdrawnAfterMission 0
scalar OsgEarthNet.uav[45] utilizationCountIdleState 14
scalar OsgEarthNet.uav[45] utilizationFail 0
scalar OsgEarthNet.uav[45] simulationTime 150424.31884642
scalar OsgEarthNet.uav[46] utilizationSecMission 698.84532193436
scalar OsgEarthNet.uav[46] utilizationSecMaintenance 323.03163670533
scalar OsgEarthNet.uav[46] utilizationSecCharge 3710
scalar OsgEarthNet.uav[46] utilizationSecIdle 145692.44088778
scalar OsgEarthNet.uav[46] utilizationEnergyMission 3476.2671203613
scalar OsgEarthNet.uav[46] utilizationEnergyMaintenance 1476.3252487183
scalar OsgEarthNet.uav[46] utilizationEnergyCharge 4952.587890625
scalar OsgEarthNet.uav[46] utilizationEnergyOverdrawMission 0
scalar OsgEarthNet.uav[46] utilizationEnergyOverdrawMaintenance 0
scalar OsgEarthNet.uav[46] utilizationCountMissions 1
scalar OsgEarthNet.uav[46] utilizationCountManeuversMission 10
scalar OsgEarthNet.uav[46] utilizationCountManeuversMaintenance 2
scalar OsgEarthNet.uav[46] utilizationCountChargeState 1
scalar OsgEarthNet.uav[46] utilizationCountOverdrawnAfterMission 0
scalar OsgEarthNet.uav[46] utilizationCountIdleState 2
scalar OsgEarthNet.uav[46] utilizationFail 0
scalar OsgEarthNet.uav[46] simulationTime 150424.31884642
scalar OsgEarthNet.uav[47] utilizationSecMission 15695.195107409
scalar OsgEarthNet.uav[47] utilizationSecMaintenance 12233.428828442
scalar OsgEarthNet.uav[47] utilizationSecCharge 99410
scalar OsgEarthNet.uav[47] utilizationSecIdle 23085.693910565
scalar OsgEarthNet.uav[47] utilizationEnergyMission 75000.00428772
scalar OsgEarthNet.uav[47] utilizationEnergyMaintenance 55759.408039093
scalar OsgEarthNet.uav[47] utilizationEnergyCharge 131040.47509766
scalar OsgEarthNet.uav[47] utilizationEnergyOverdrawMission 0
scalar OsgEarthNet.uav[47] utilizationEnergyOverdrawMaintenance 63.483882904053
scalar OsgEarthNet.uav[47] utilizationCountMissions 27
scalar OsgEarthNet.uav[47] utilizationCountManeuversMission 459
scalar OsgEarthNet.uav[47] utilizationCountManeuversMaintenance 54
scalar OsgEarthNet.uav[47] utilizationCountChargeState 27
scalar OsgEarthNet.uav[47] utilizationCountOverdrawnAfterMission 1
scalar OsgEarthNet.uav[47] utilizationCountIdleState 28
scalar OsgEarthNet.uav[47] utilizationFail 0
scalar OsgEarthNet.uav[47] simulationTime 150424.31884642
scalar OsgEarthNet.uav[48] utilizationSecMission 3188.1310812657
scalar OsgEarthNet.uav[48] utilizationSecMaintenance 1875.7923002522
scalar OsgEarthNet.uav[48] utilizationSecCharge 18380
scalar OsgEarthNet.uav[48] utilizationSecIdle 126980.3944649
scalar OsgEarthNet.uav[48] utilizationEnergyMission 15669.261657715
scalar OsgEarthNet.uav[48] utilizationEnergyMaintenance 8827.8184776306
scalar OsgEarthNet.uav[48] utilizationEnergyCharge 24448.235351562
scalar OsgEarthNet.uav[48] utilizationEnergyOverdrawMission 0
scalar OsgEarthNet.uav[48] utilizationEnergyOverdrawMaintenance 0
scalar OsgEarthNet.uav[48] utilizationCountMissions 5
scalar OsgEarthNet.uav[48] utilizationCountManeuversMission 75
scalar OsgEarthNet.uav[48] utilizationCountManeuversMaintenance 10
scalar OsgEarthNet.uav[48] utilizationCountChargeState 5
scalar OsgEarthNet.uav[48] utilizationCountOverdrawnAfterMission 0
scalar OsgEarthNet.uav[48] utilizationCountIdleState 6
scalar OsgEarthNet.uav[48] utilizationFail 0
scalar OsgEarthNet.uav[48] simulationTime 150424.31884642
scalar OsgEarthNet.uav[49] utilizationSecMission 16243.940588254
scalar OsgEarthNet.uav[49] utilizationSecMaintenance 12570.152812406
scalar OsgEarthNet.uav[49] utilizationSecCharge 102608.22244576
scalar OsgEarthNet.uav[49] utilizationSecIdle 19002.002
scalar OsgEarthNet.uav[49] utilizationEnergyMission 79162.082691193
scalar OsgEarthNet.uav[49] utilizationEnergyMaintenance 58001.927497864
scalar OsgEarthNet.uav[49] utilizationEnergyCharge 136709.32470703
scalar OsgEarthNet.uav[49] utilizationEnergyOverdrawMission 0
scalar OsgEarthNet.uav[49] utilizationEnergyOverdrawMaintenance 0
scalar OsgEarthNet.uav[49] utilizationCountMissions 28
scalar OsgEarthNet.uav[49] utilizationCountManeuversMission 504
scalar OsgEarthNet.uav[49] utilizationCountManeuversMaintenance 56
scalar OsgEarthNet.uav[49] utilizationCountChargeState 28
scalar OsgEarthNet.uav[49] utilizationCountOverdrawnAfterMission 0
scalar OsgEarthNet.uav[49] utilizationCountIdleState 28
scalar OsgEarthNet.uav[49] utilizationFail 0
scalar OsgEarthNet.uav[49] simulationTime 150424.31884642
scalar OsgEarthNet.uav[50] utilizationSecMission 3259.4008502718
scalar OsgEarthNet.uav[50] utilizationSecMaintenance 2689.3535844728
scalar OsgEarthNet.uav[50] utilizationSecCharge 21540
scalar OsgEarthNet.uav[50] utilizationSecIdle 122935.56341167
scalar OsgEarthNet.uav[50] utilizationEnergyMission 16206.343513489
scalar OsgEarthNet.uav[50] utilizationEnergyMaintenance 12342.097248077
scalar OsgEarthNet.uav[50] utilizationEnergyCharge 28205.859863281
scalar OsgEarthNet.uav[50] utilizationEnergyOverdrawMission 0
scalar OsgEarthNet.uav[50] utilizationEnergyOverdrawMaintenance 0
scalar OsgEarthNet.uav[50] utilizationCountMissions 6
scalar OsgEarthNet.uav[50] utilizationCountManeuversMission 94
scalar OsgEarthNet.uav[50] utilizationCountManeuversMaintenance 12
scalar OsgEarthNet.uav[50] utilizationCountChargeState 6
scalar OsgEarthNet.uav[50] utilizationCountOverdrawnAfterMission 0
scalar OsgEarthNet.uav[50] utilizationCountIdleState 7
scalar OsgEarthNet.uav[50] utilizationFail 0
scalar OsgEarthNet.uav[50] simulationTime 150424.31884642
scalar OsgEarthNet.uav[51] utilizationSecMission 5718.2081168778
scalar OsgEarthNet.uav[51] utilizationSecMaintenance 4246.9166295252
scalar OsgEarthNet.uav[51] utilizationSecCharge 36850
scalar OsgEarthNet.uav[51] utilizationSecIdle 103609.19310001
scalar OsgEarthNet.uav[51] utilizationEnergyMission 29601.517433166
scalar OsgEarthNet.uav[51] utilizationEnergyMaintenance 20101.286003113
scalar OsgEarthNet.uav[51] utilizationEnergyCharge 48946.694824219
scalar OsgEarthNet.uav[51] utilizationEnergyOverdrawMission 0
scalar OsgEarthNet.uav[51] utilizationEnergyOverdrawMaintenance 0
scalar OsgEarthNet.uav[51] utilizationCountMissions 10
scalar OsgEarthNet.uav[51] utilizationCountManeuversMission 216
scalar OsgEarthNet.uav[51] utilizationCountManeuversMaintenance 20
scalar OsgEarthNet.uav[51] utilizationCountChargeState 10
scalar OsgEarthNet.uav[51] utilizationCountOverdrawnAfterMission 0
scalar OsgEarthNet.uav[51] utilizationCountIdleState 11
scalar OsgEarthNet.uav[51] utilizationFail 0
scalar OsgEarthNet.uav[51] simulationTime 150424.31884642
scalar OsgEarthNet.uav[52] utilizationSecMission 16940.743600779
scalar OsgEarthNet.uav[52] utilizationSecMaintenance 12715.093854868
scalar OsgEarthNet.uav[52] utilizationSecCharge 102806.47939077
scalar OsgEarthNet.uav[52] utilizationSecIdle 17962.001
scalar OsgEarthNet.uav[52] utilizationEnergyMission 81798.207595825
scalar OsgEarthNet.uav[52] utilizationEnergyMaintenance 58438.063148499
scalar OsgEarthNet.uav[52] utilizationEnergyCharge 136141.40112305
scalar OsgEarthNet.uav[52] utilizationEnergyOverdrawMission 0
scalar OsgEarthNet.uav[52] utilizationEnergyOverdrawMaintenance 111.46524047852
scalar OsgEarthNet.uav[52] utilizationCountMissions 29
scalar OsgEarthNet.uav[52] utilizationCountManeuversMission 538
scalar OsgEarthNet.uav[52] utilizationCountManeuversMaintenance 58
scalar OsgEarthNet.uav[52] utilizationCountChargeState 29
scalar OsgEarthNet.uav[52] utilizationCountOverdrawnAfterMission 1
scalar OsgEarthNet.uav[52] utilizationCountIdleState 29
scalar OsgEarthNet.uav[52] utilizationFail 0
scalar OsgEarthNet.uav[52] simulationTime 150424.31884642
scalar OsgEarthNet.uav[53] utilizationSecMission 11213.205326933
scalar OsgEarthNet.uav[53] utilizationSecMaintenance 8866.8561598498
scalar OsgEarthNet.uav[53] utilizationSecCharge 71141.852001677
scalar OsgEarthNet.uav[53] utilizationSecIdle 59202.404357956
scalar OsgEarthNet.uav[53] utilizationEnergyMission 55586.003570557
scalar OsgEarthNet.uav[53] utilizationEnergyMaintenance 41588.879074097
scalar OsgEarthNet.uav[53] utilizationEnergyCharge 94835.177978516
scalar OsgEarthNet.uav[53] utilizationEnergyOverdrawMission 0
scalar OsgEarthNet.uav[53] utilizationEnergyOverdrawMaintenance 0
scalar OsgEarthNet.uav[53] utilizationCountMissions 20
scalar OsgEarthNet.uav[53] utilizationCountManeuversMission 429
scalar OsgEarthNet.uav[53] utilizationCountManeuversMaintenance 40
scalar OsgEarthNet.uav[53] utilizationCountChargeState 20
scalar OsgEarthNet.uav[53] utilizationCountOverdrawnAfterMission 0
scalar OsgEarthNet.uav[53] utilizationCountIdleState 20
scalar OsgEarthNet.uav[53] utilizationFail 0
scalar OsgEarthNet.uav[53] simulationTime 150424.31884642
scalar OsgEarthNet.uav[54] utilizationSecMission 8562.6783071898
scalar OsgEarthNet.uav[54] utilizationSecMaintenance 5801.7948335322
scalar OsgEarthNet.uav[54] utilizationSecCharge 50760
scalar OsgEarthNet.uav[54] utilizationSecIdle 85299.844705694
scalar OsgEarthNet.uav[54] utilizationEnergyMission 39826.343616486
scalar OsgEarthNet.uav[54] utilizationEnergyMaintenance 27006.086280823
scalar OsgEarthNet.uav[54] utilizationEnergyCharge 66828.36328125
scalar OsgEarthNet.uav[54] utilizationEnergyOverdrawMission 0
scalar OsgEarthNet.uav[54] utilizationEnergyOverdrawMaintenance 0
scalar OsgEarthNet.uav[54] utilizationCountMissions 14
scalar OsgEarthNet.uav[54] utilizationCountManeuversMission 206
scalar OsgEarthNet.uav[54] utilizationCountManeuversMaintenance 28
scalar OsgEarthNet.uav[54] utilizationCountChargeState 14
scalar OsgEarthNet.uav[54] utilizationCountOverdrawnAfterMission 0
scalar OsgEarthNet.uav[54] utilizationCountIdleState 15
scalar OsgEarthNet.uav[54] utilizationFail 0
scalar OsgEarthNet.uav[54] simulationTime 150424.31884642
scalar OsgEarthNet.uav[55] utilizationSecMission 10404.49490632
scalar OsgEarthNet.uav[55] utilizationSecMaintenance 6864.4388292269
scalar OsgEarthNet.uav[55] utilizationSecCharge 60953.378110869
scalar OsgEarthNet.uav[55] utilizationSecIdle 72202.006
scalar OsgEarthNet.uav[55] utilizationEnergyMission 49657.320602417
scalar OsgEarthNet.uav[55] utilizationEnergyMaintenance 31442.664775848
scalar OsgEarthNet.uav[55] utilizationEnergyCharge 81342.2265625
scalar OsgEarthNet.uav[55] utilizationEnergyOverdrawMission 0
scalar OsgEarthNet.uav[55] utilizationEnergyOverdrawMaintenance 0
scalar OsgEarthNet.uav[55] utilizationCountMissions 17
scalar OsgEarthNet.uav[55] utilizationCountManeuversMission 331
scalar OsgEarthNet.uav[55] utilizationCountManeuversMaintenance 34
scalar OsgEarthNet.uav[55] utilizationCountChargeState 17
scalar OsgEarthNet.uav[55] utilizationCountOverdrawnAfterMission 0
scalar OsgEarthNet.uav[55] utilizationCountIdleState 16
scalar OsgEarthNet.uav[55] utilizationFail 0
scalar OsgEarthNet.uav[55] simulationTime 150424.31884642
scalar OsgEarthNet.uav[56] utilizationSecMission 15792.496984141
scalar OsgEarthNet.uav[56] utilizationSecMaintenance 11822.417512272
scalar OsgEarthNet.uav[56] utilizationSecCharge 97166.01123247
scalar OsgEarthNet.uav[56] utilizationSecIdle 25643.392117534
scalar OsgEarthNet.uav[56] utilizationEnergyMission 77885.675559998
scalar OsgEarthNet.uav[56] utilizationEnergyMaintenance 54809.491645813
scalar OsgEarthNet.uav[56] utilizationEnergyCharge 129094.44372559
scalar OsgEarthNet.uav[56] utilizationEnergyOverdrawMission 0
scalar OsgEarthNet.uav[56] utilizationEnergyOverdrawMaintenance 0
scalar OsgEarthNet.uav[56] utilizationCountMissions 27
scalar OsgEarthNet.uav[56] utilizationCountManeuversMission 519
scalar OsgEarthNet.uav[56] utilizationCountManeuversMaintenance 54
scalar OsgEarthNet.uav[56] utilizationCountChargeState 27
scalar OsgEarthNet.uav[56] utilizationCountOverdrawnAfterMission 0
scalar OsgEarthNet.uav[56] utilizationCountIdleState 26
scalar OsgEarthNet.uav[56] utilizationFail 0
scalar OsgEarthNet.uav[56] simulationTime 150424.31884642
scalar OsgEarthNet.uav[57] utilizationSecMission 14487.534031558
scalar OsgEarthNet.uav[57] utilizationSecMaintenance 12631.083972355
scalar OsgEarthNet.uav[57] utilizationSecCharge 95700.998567921
scalar OsgEarthNet.uav[57] utilizationSecIdle 27604.701274582
scalar OsgEarthNet.uav[57] utilizationEnergyMission 70698.831581116
scalar OsgEarthNet.uav[57] utilizationEnergyMaintenance 57282.83133316
scalar OsgEarthNet.uav[57] utilizationEnergyCharge 126958.27099609
scalar OsgEarthNet.uav[57] utilizationEnergyOverdrawMission 0
scalar OsgEarthNet.uav[57] utilizationEnergyOverdrawMaintenance 130.61095237732
scalar OsgEarthNet.uav[57] utilizationCountMissions 26
scalar OsgEarthNet.uav[57] utilizationCountManeuversMission 439
scalar OsgEarthNet.uav[57] utilizationCountManeuversMaintenance 52
scalar OsgEarthNet.uav[57] utilizationCountChargeState 26
scalar OsgEarthNet.uav[57] utilizationCountOverdrawnAfterMission 2
scalar OsgEarthNet.uav[57] utilizationCountIdleState 26
scalar OsgEarthNet.uav[57] utilizationFail 0
scalar OsgEarthNet.uav[57] simulationTime 150424.31884642
scalar OsgEarthNet.uav[58] utilizationSecMission 16551.396395921
scalar OsgEarthNet.uav[58] utilizationSecMaintenance 9883.179848561
scalar OsgEarthNet.uav[58] utilizationSecCharge 92400.110521269
scalar OsgEarthNet.uav[58] utilizationSecIdle 31589.631080665
scalar OsgEarthNet.uav[58] utilizationEnergyMission 79168.868476868
scalar OsgEarthNet.uav[58] utilizationEnergyMaintenance 46223.365959167
scalar OsgEarthNet.uav[58] utilizationEnergyCharge 122339.42700195
scalar OsgEarthNet.uav[58] utilizationEnergyOverdrawMission 0
scalar OsgEarthNet.uav[58] utilizationEnergyOverdrawMaintenance 10.198627471924
scalar OsgEarthNet.uav[58] utilizationCountMissions 26
scalar OsgEarthNet.uav[58] utilizationCountManeuversMission 469
scalar OsgEarthNet.uav[58] utilizationCountManeuversMaintenance 52
scalar OsgEarthNet.uav[58] utilizationCountChargeState 26
scalar OsgEarthNet.uav[58] utilizationCountOverdrawnAfterMission 1
scalar OsgEarthNet.uav[58] utilizationCountIdleState 25
scalar OsgEarthNet.uav[58] utilizationFail 0
scalar OsgEarthNet.uav[58] simulationTime 150424.31884642
scalar OsgEarthNet.uav[59] utilizationSecMission 13868.347152736
scalar OsgEarthNet.uav[59] utilizationSecMaintenance 9443.3374199218
scalar OsgEarthNet.uav[59] utilizationSecCharge 82620.633273758
scalar OsgEarthNet.uav[59] utilizationSecIdle 44492
scalar OsgEarthNet.uav[59] utilizationEnergyMission 68145.678160869
scalar OsgEarthNet.uav[59] utilizationEnergyMaintenance 44218.903064728
scalar OsgEarthNet.uav[59] utilizationEnergyCharge 110374.53027344
scalar OsgEarthNet.uav[59] utilizationEnergyOverdrawMission 0
scalar OsgEarthNet.uav[59] utilizationEnergyOverdrawMaintenance 0
scalar OsgEarthNet.uav[59] utilizationCountMissions 23
scalar OsgEarthNet.uav[59] utilizationCountManeuversMission 440
scalar OsgEarthNet.uav[59] utilizationCountManeuversMaintenance 45
scalar OsgEarthNet.uav[59] utilizationCountChargeState 23
scalar OsgEarthNet.uav[59] utilizationCountOverdrawnAfterMission 0
scalar OsgEarthNet.uav[59] utilizationCountIdleState 21
scalar OsgEarthNet.uav[59] utilizationFail 0
scalar OsgEarthNet.uav[59] simulationTime 150424.31884642
scalar OsgEarthNet.uav[60] utilizationSecMission 17499.491138875
scalar OsgEarthNet.uav[60] utilizationSecMaintenance 12034.108909393
scalar OsgEarthNet.uav[60] utilizationSecCharge 103228.71679815
scalar OsgEarthNet.uav[60] utilizationSecIdle 17662.001
scalar OsgEarthNet.uav[60] utilizationEnergyMission 83700.460048676
scalar OsgEarthNet.uav[60] utilizationEnergyMaintenance 55847.996356964
scalar OsgEarthNet.uav[60] utilizationEnergyCharge 136718.26049805
scalar OsgEarthNet.uav[60] utilizationEnergyOverdrawMission 0
scalar OsgEarthNet.uav[60] utilizationEnergyOverdrawMaintenance 0
scalar OsgEarthNet.uav[60] utilizationCountMissions 29
scalar OsgEarthNet.uav[60] utilizationCountManeuversMission 520
scalar OsgEarthNet.uav[60] utilizationCountManeuversMaintenance 58
scalar OsgEarthNet.uav[60] utilizationCountChargeState 29
scalar OsgEarthNet.uav[60] utilizationCountOverdrawnAfterMission 0
scalar OsgEarthNet.uav[60] utilizationCountIdleState 28
scalar OsgEarthNet.uav[60] utilizationFail 0
scalar OsgEarthNet.uav[60] simulationTime 150424.31884642
scalar OsgEarthNet.uav[61] utilizationSecMission 14818.864585691
scalar OsgEarthNet.uav[61] utilizationSecMaintenance 13423.450260725
scalar OsgEarthNet.uav[61] utilizationSecCharge 102500
scalar OsgEarthNet.uav[61] utilizationSecIdle 19682.003
scalar OsgEarthNet.uav[61] utilizationEnergyMission 73333.856624603
scalar OsgEarthNet.uav[61] utilizationEnergyMaintenance 62440.906417445
scalar OsgEarthNet.uav[61] utilizationEnergyCharge 135736.22314453
scalar OsgEarthNet.uav[61] utilizationEnergyOverdrawMission 0
scalar OsgEarthNet.uav[61] utilizationEnergyOverdrawMaintenance 0
scalar OsgEarthNet.uav[61] utilizationCountMissions 28
scalar OsgEarthNet.uav[61] utilizationCountManeuversMission 582
scalar OsgEarthNet.uav[61] utilizationCountManeuversMaintenance 57
scalar OsgEarthNet.uav[61] utilizationCountChargeState 28
scalar OsgEarthNet.uav[61] utilizationCountOverdrawnAfterMission 0
scalar OsgEarthNet.uav[61] utilizationCountIdleState 26
scalar OsgEarthNet.uav[61] utilizationFail 0
scalar OsgEarthNet.uav[61] simulationTime 150424.31884642
scalar OsgEarthNet.uav[62] utilizationSecMission 13678.95913714
scalar OsgEarthNet.uav[62] utilizationSecMaintenance 9503.4661661998
scalar OsgEarthNet.uav[62] utilizationSecCharge 82810
scalar OsgEarthNet.uav[62] utilizationSecIdle 44431.892543077
scalar OsgEarthNet.uav[62] utilizationEnergyMission 65148.96006012
scalar OsgEarthNet.uav[62] utilizationEnergyMaintenance 43609.560459137
scalar OsgEarthNet.uav[62] utilizationEnergyCharge 108873.98535156
scalar OsgEarthNet.uav[62] utilizationEnergyOverdrawMission 0
scalar OsgEarthNet.uav[62] utilizationEnergyOverdrawMaintenance 0
scalar OsgEarthNet.uav[62] utilizationCountMissions 23
scalar OsgEarthNet.uav[62] utilizationCountManeuversMission 371
scalar OsgEarthNet.uav[62] utilizationCountManeuversMaintenance 46
scalar OsgEarthNet.uav[62] utilizationCountChargeState 23
scalar OsgEarthNet.uav[62] utilizationCountOverdrawnAfterMission 0
scalar OsgEarthNet.uav[62] utilizationCountIdleState 24
scalar OsgEarthNet.uav[62] utilizationFail 0
scalar OsgEarthNet.uav[62] simulationTime 150424.31884642
scalar OsgEarthNet.uav[63] utilizationSecMission 15019.133953154
scalar OsgEarthNet.uav[63] utilizationSecMaintenance 10260.241023048
scalar OsgEarthNet.uav[63] utilizationSecCharge 90840.161904706
scalar OsgEarthNet.uav[63] utilizationSecIdle 34304.780965507
scalar OsgEarthNet.uav[63] utilizationEnergyMission 71792.79032135
scalar OsgEarthNet.uav[63] utilizationEnergyMaintenance 48370.296360016
scalar OsgEarthNet.uav[63] utilizationEnergyCharge 121079.890625
scalar OsgEarthNet.uav[63] utilizationEnergyOverdrawMission 0
scalar OsgEarthNet.uav[63] utilizationEnergyOverdrawMaintenance 4.9086790084839
scalar OsgEarthNet.uav[63] utilizationCountMissions 25
scalar OsgEarthNet.uav[63] utilizationCountManeuversMission 445
scalar OsgEarthNet.uav[63] utilizationCountManeuversMaintenance 50
scalar OsgEarthNet.uav[63] utilizationCountChargeState 25
scalar OsgEarthNet.uav[63] utilizationCountOverdrawnAfterMission 1
scalar OsgEarthNet.uav[63] utilizationCountIdleState 24
scalar OsgEarthNet.uav[63] utilizationFail 0
scalar OsgEarthNet.uav[63] simulationTime 150424.31884642
scalar OsgEarthNet.uav[64] utilizationSecMission 15446.693714352
scalar OsgEarthNet.uav[64] utilizationSecMaintenance 12257.898524733
scalar OsgEarthNet.uav[64] utilizationSecCharge 99000
scalar OsgEarthNet.uav[64] utilizationSecIdle 23719.725607331
scalar OsgEarthNet.uav[64] utilizationEnergyMission 74570.01083374
scalar OsgEarthNet.uav[64] utilizationEnergyMaintenance 57248.833282471
scalar OsgEarthNet.uav[64] utilizationEnergyCharge 131735.99316406
scalar OsgEarthNet.uav[64] utilizationEnergyOverdrawMission 0
scalar OsgEarthNet.uav[64] utilizationEnergyOverdrawMaintenance 109.2866973877
scalar OsgEarthNet.uav[64] utilizationCountMissions 27
scalar OsgEarthNet.uav[64] utilizationCountManeuversMission 524
scalar OsgEarthNet.uav[64] utilizationCountManeuversMaintenance 54
scalar OsgEarthNet.uav[64] utilizationCountChargeState 27
scalar OsgEarthNet.uav[64] utilizationCountOverdrawnAfterMission 2
scalar OsgEarthNet.uav[64] utilizationCountIdleState 22
[...]
scalar OsgEarthNet.uav[81] utilizationCountOverdrawnAfterMission 1
scalar OsgEarthNet.uav[81] utilizationCountIdleState 22
scalar OsgEarthNet.uav[81] utilizationFail 0
scalar OsgEarthNet.uav[81] simulationTime 150424.31884642
scalar OsgEarthNet.uav[82] utilizationSecMission 17677.31780742
scalar OsgEarthNet.uav[82] utilizationSecMaintenance 12879.822045975
scalar OsgEarthNet.uav[82] utilizationSecCharge 108385.17399302
scalar OsgEarthNet.uav[82] utilizationSecIdle 11482.004
scalar OsgEarthNet.uav[82] utilizationEnergyMission 84597.922756195
scalar OsgEarthNet.uav[82] utilizationEnergyMaintenance 58864.31287384
scalar OsgEarthNet.uav[82] utilizationEnergyCharge 144868.79101562
scalar OsgEarthNet.uav[82] utilizationEnergyOverdrawMission 0
scalar OsgEarthNet.uav[82] utilizationEnergyOverdrawMaintenance 0
scalar OsgEarthNet.uav[82] utilizationCountMissions 30
scalar OsgEarthNet.uav[82] utilizationCountManeuversMission 546
scalar OsgEarthNet.uav[82] utilizationCountManeuversMaintenance 60
scalar OsgEarthNet.uav[82] utilizationCountChargeState 30
scalar OsgEarthNet.uav[82] utilizationCountOverdrawnAfterMission 0
scalar OsgEarthNet.uav[82] utilizationCountIdleState 25
scalar OsgEarthNet.uav[82] utilizationFail 0
scalar OsgEarthNet.uav[82] simulationTime 150424.31884642
scalar OsgEarthNet.uav[83] utilizationSecMission 17501.612327477
scalar OsgEarthNet.uav[83] utilizationSecMaintenance 13359.9395536
scalar OsgEarthNet.uav[83] utilizationSecCharge 108010
scalar OsgEarthNet.uav[83] utilizationSecIdle 11552.765965339
scalar OsgEarthNet.uav[83] utilizationEnergyMission 83586.910912852
scalar OsgEarthNet.uav[83] utilizationEnergyMaintenance 61997.225383759
scalar OsgEarthNet.uav[83] utilizationEnergyCharge 143314.80859375
scalar OsgEarthNet.uav[83] utilizationEnergyOverdrawMission 0
scalar OsgEarthNet.uav[83] utilizationEnergyOverdrawMaintenance 0
scalar OsgEarthNet.uav[83] utilizationCountMissions 30
scalar OsgEarthNet.uav[83] utilizationCountManeuversMission 490
scalar OsgEarthNet.uav[83] utilizationCountManeuversMaintenance 61
scalar OsgEarthNet.uav[83] utilizationCountChargeState 30
scalar OsgEarthNet.uav[83] utilizationCountOverdrawnAfterMission 0
scalar OsgEarthNet.uav[83] utilizationCountIdleState 26
scalar OsgEarthNet.uav[83] utilizationFail 0
scalar OsgEarthNet.uav[83] simulationTime 150424.31884642
scalar OsgEarthNet.uav[84] utilizationSecMission 17967.65209647
scalar OsgEarthNet.uav[84] utilizationSecMaintenance 13604.658749946
scalar OsgEarthNet.uav[84] utilizationSecCharge 109370
scalar OsgEarthNet.uav[84] utilizationSecIdle 9482.007
scalar OsgEarthNet.uav[84] utilizationEnergyMission 88020.811892987
scalar OsgEarthNet.uav[84] utilizationEnergyMaintenance 63678.054172516
scalar OsgEarthNet.uav[84] utilizationEnergyCharge 147503.171875
scalar OsgEarthNet.uav[84] utilizationEnergyOverdrawMission 0
scalar OsgEarthNet.uav[84] utilizationEnergyOverdrawMaintenance 169.76967430115
scalar OsgEarthNet.uav[84] utilizationCountMissions 30
scalar OsgEarthNet.uav[84] utilizationCountManeuversMission 571
scalar OsgEarthNet.uav[84] utilizationCountManeuversMaintenance 61
scalar OsgEarthNet.uav[84] utilizationCountChargeState 30
scalar OsgEarthNet.uav[84] utilizationCountOverdrawnAfterMission 2
scalar OsgEarthNet.uav[84] utilizationCountIdleState 18
scalar OsgEarthNet.uav[84] utilizationFail 0
scalar OsgEarthNet.uav[84] simulationTime 150424.31884642
scalar OsgEarthNet.uav[85] utilizationSecMission 18077.725246194
scalar OsgEarthNet.uav[85] utilizationSecMaintenance 14194.206277803
scalar OsgEarthNet.uav[85] utilizationSecCharge 111390.38632242
scalar OsgEarthNet.uav[85] utilizationSecIdle 6762
scalar OsgEarthNet.uav[85] utilizationEnergyMission 86792.714687347
scalar OsgEarthNet.uav[85] utilizationEnergyMaintenance 65769.314987183
scalar OsgEarthNet.uav[85] utilizationEnergyCharge 149784.49719238
scalar OsgEarthNet.uav[85] utilizationEnergyOverdrawMission 0
scalar OsgEarthNet.uav[85] utilizationEnergyOverdrawMaintenance 65.984474182129
scalar OsgEarthNet.uav[85] utilizationCountMissions 32
scalar OsgEarthNet.uav[85] utilizationCountManeuversMission 584
scalar OsgEarthNet.uav[85] utilizationCountManeuversMaintenance 64
scalar OsgEarthNet.uav[85] utilizationCountChargeState 32
scalar OsgEarthNet.uav[85] utilizationCountOverdrawnAfterMission 1
scalar OsgEarthNet.uav[85] utilizationCountIdleState 19
scalar OsgEarthNet.uav[85] utilizationFail 0
scalar OsgEarthNet.uav[85] simulationTime 150424.31884642
scalar OsgEarthNet.uav[86] utilizationSecMission 19022.888339639
scalar OsgEarthNet.uav[86] utilizationSecMaintenance 12856.104030265
scalar OsgEarthNet.uav[86] utilizationSecCharge 108760
scalar OsgEarthNet.uav[86] utilizationSecIdle 9849.6031293541
scalar OsgEarthNet.uav[86] utilizationEnergyMission 92983.352668762
scalar OsgEarthNet.uav[86] utilizationEnergyMaintenance 58750.048622131
scalar OsgEarthNet.uav[86] utilizationEnergyCharge 146377.63232422
scalar OsgEarthNet.uav[86] utilizationEnergyOverdrawMission 0
scalar OsgEarthNet.uav[86] utilizationEnergyOverdrawMaintenance 358.94445800781
scalar OsgEarthNet.uav[86] utilizationCountMissions 30
scalar OsgEarthNet.uav[86] utilizationCountManeuversMission 566
scalar OsgEarthNet.uav[86] utilizationCountManeuversMaintenance 61
scalar OsgEarthNet.uav[86] utilizationCountChargeState 30
scalar OsgEarthNet.uav[86] utilizationCountOverdrawnAfterMission 1
scalar OsgEarthNet.uav[86] utilizationCountIdleState 16
scalar OsgEarthNet.uav[86] utilizationFail 0
scalar OsgEarthNet.uav[86] simulationTime 150424.31884642
scalar OsgEarthNet.uav[87] utilizationSecMission 17736.498796715
scalar OsgEarthNet.uav[87] utilizationSecMaintenance 14297.921255302
scalar OsgEarthNet.uav[87] utilizationSecCharge 109277.8917944
scalar OsgEarthNet.uav[87] utilizationSecIdle 9112.006
scalar OsgEarthNet.uav[87] utilizationEnergyMission 86875.469116211
scalar OsgEarthNet.uav[87] utilizationEnergyMaintenance 65276.759178162
scalar OsgEarthNet.uav[87] utilizationEnergyCharge 146423.05632019
scalar OsgEarthNet.uav[87] utilizationEnergyOverdrawMission 0
scalar OsgEarthNet.uav[87] utilizationEnergyOverdrawMaintenance 0
scalar OsgEarthNet.uav[87] utilizationCountMissions 31
scalar OsgEarthNet.uav[87] utilizationCountManeuversMission 673
scalar OsgEarthNet.uav[87] utilizationCountManeuversMaintenance 62
scalar OsgEarthNet.uav[87] utilizationCountChargeState 31
scalar OsgEarthNet.uav[87] utilizationCountOverdrawnAfterMission 0
scalar OsgEarthNet.uav[87] utilizationCountIdleState 20
scalar OsgEarthNet.uav[87] utilizationFail 0
scalar OsgEarthNet.uav[87] simulationTime 150424.31884642
scalar OsgEarthNet.uav[88] utilizationSecMission 16660.264911696
scalar OsgEarthNet.uav[88] utilizationSecMaintenance 14863.811540203
scalar OsgEarthNet.uav[88] utilizationSecCharge 110938.23939452
scalar OsgEarthNet.uav[88] utilizationSecIdle 7962.002
scalar OsgEarthNet.uav[88] utilizationEnergyMission 79852.922325134
scalar OsgEarthNet.uav[88] utilizationEnergyMaintenance 70620.448661804
scalar OsgEarthNet.uav[88] utilizationEnergyCharge 149039.06982422
scalar OsgEarthNet.uav[88] utilizationEnergyOverdrawMission 0
scalar OsgEarthNet.uav[88] utilizationEnergyOverdrawMaintenance 44.84455871582
scalar OsgEarthNet.uav[88] utilizationCountMissions 31
scalar OsgEarthNet.uav[88] utilizationCountManeuversMission 551
scalar OsgEarthNet.uav[88] utilizationCountManeuversMaintenance 62
scalar OsgEarthNet.uav[88] utilizationCountChargeState 31
scalar OsgEarthNet.uav[88] utilizationCountOverdrawnAfterMission 1
scalar OsgEarthNet.uav[88] utilizationCountIdleState 18
scalar OsgEarthNet.uav[88] utilizationFail 0
scalar OsgEarthNet.uav[88] simulationTime 150424.31884642
scalar OsgEarthNet.uav[89] utilizationSecMission 17133.779359822
scalar OsgEarthNet.uav[89] utilizationSecMaintenance 13616.39230213
scalar OsgEarthNet.uav[89] utilizationSecCharge 105873.8656895
scalar OsgEarthNet.uav[89] utilizationSecIdle 13800.280494967
scalar OsgEarthNet.uav[89] utilizationEnergyMission 83195.573944092
scalar OsgEarthNet.uav[89] utilizationEnergyMaintenance 64172.282554626
scalar OsgEarthNet.uav[89] utilizationEnergyCharge 141753.33642578
scalar OsgEarthNet.uav[89] utilizationEnergyOverdrawMission 0
scalar OsgEarthNet.uav[89] utilizationEnergyOverdrawMaintenance 141.73154258728
scalar OsgEarthNet.uav[89] utilizationCountMissions 30
scalar OsgEarthNet.uav[89] utilizationCountManeuversMission 455
scalar OsgEarthNet.uav[89] utilizationCountManeuversMaintenance 60
scalar OsgEarthNet.uav[89] utilizationCountChargeState 30
scalar OsgEarthNet.uav[89] utilizationCountOverdrawnAfterMission 2
scalar OsgEarthNet.uav[89] utilizationCountIdleState 21
scalar OsgEarthNet.uav[89] utilizationFail 0
scalar OsgEarthNet.uav[89] simulationTime 150424.31884642
scalar OsgEarthNet.uav[90] utilizationSecMission 16771.191285481
scalar OsgEarthNet.uav[90] utilizationSecMaintenance 14575.890185703
scalar OsgEarthNet.uav[90] utilizationSecCharge 110045.22937523
scalar OsgEarthNet.uav[90] utilizationSecIdle 9032.007
scalar OsgEarthNet.uav[90] utilizationEnergyMission 81770.775203705
scalar OsgEarthNet.uav[90] utilizationEnergyMaintenance 67379.676044464
scalar OsgEarthNet.uav[90] utilizationEnergyCharge 147100.68994141
scalar OsgEarthNet.uav[90] utilizationEnergyOverdrawMission 0
scalar OsgEarthNet.uav[90] utilizationEnergyOverdrawMaintenance 0
scalar OsgEarthNet.uav[90] utilizationCountMissions 31
scalar OsgEarthNet.uav[90] utilizationCountManeuversMission 493
scalar OsgEarthNet.uav[90] utilizationCountManeuversMaintenance 62
scalar OsgEarthNet.uav[90] utilizationCountChargeState 31
scalar OsgEarthNet.uav[90] utilizationCountOverdrawnAfterMission 0
scalar OsgEarthNet.uav[90] utilizationCountIdleState 22
scalar OsgEarthNet.uav[90] utilizationFail 0
scalar OsgEarthNet.uav[90] simulationTime 150424.31884642
scalar OsgEarthNet.uav[91] utilizationSecMission 17447.466268088
scalar OsgEarthNet.uav[91] utilizationSecMaintenance 14173.429679443
scalar OsgEarthNet.uav[91] utilizationSecCharge 109493.49975634
scalar OsgEarthNet.uav[91] utilizationSecIdle 9309.9221425466
scalar OsgEarthNet.uav[91] utilizationEnergyMission 84043.341754913
scalar OsgEarthNet.uav[91] utilizationEnergyMaintenance 65084.775161743
scalar OsgEarthNet.uav[91] utilizationEnergyCharge 147532.49365234
scalar OsgEarthNet.uav[91] utilizationEnergyOverdrawMission 0
scalar OsgEarthNet.uav[91] utilizationEnergyOverdrawMaintenance 0
scalar OsgEarthNet.uav[91] utilizationCountMissions 31
scalar OsgEarthNet.uav[91] utilizationCountManeuversMission 487
scalar OsgEarthNet.uav[91] utilizationCountManeuversMaintenance 62
scalar OsgEarthNet.uav[91] utilizationCountChargeState 31
scalar OsgEarthNet.uav[91] utilizationCountOverdrawnAfterMission 0
scalar OsgEarthNet.uav[91] utilizationCountIdleState 20
scalar OsgEarthNet.uav[91] utilizationFail 0
scalar OsgEarthNet.uav[91] simulationTime 150424.31884642
scalar OsgEarthNet.uav[92] utilizationSecMission 19557.368009328
scalar OsgEarthNet.uav[92] utilizationSecMaintenance 12496.378781343
scalar OsgEarthNet.uav[92] utilizationSecCharge 110728.56905575
scalar OsgEarthNet.uav[92] utilizationSecIdle 7642.002
scalar OsgEarthNet.uav[92] utilizationEnergyMission 93657.182136536
scalar OsgEarthNet.uav[92] utilizationEnergyMaintenance 57744.793590546
scalar OsgEarthNet.uav[92] utilizationEnergyCharge 148596.73510742
scalar OsgEarthNet.uav[92] utilizationEnergyOverdrawMission 0
scalar OsgEarthNet.uav[92] utilizationEnergyOverdrawMaintenance 0
scalar OsgEarthNet.uav[92] utilizationCountMissions 31
scalar OsgEarthNet.uav[92] utilizationCountManeuversMission 539
scalar OsgEarthNet.uav[92] utilizationCountManeuversMaintenance 62
scalar OsgEarthNet.uav[92] utilizationCountChargeState 31
scalar OsgEarthNet.uav[92] utilizationCountOverdrawnAfterMission 0
scalar OsgEarthNet.uav[92] utilizationCountIdleState 21
scalar OsgEarthNet.uav[92] utilizationFail 0
scalar OsgEarthNet.uav[92] simulationTime 150424.31884642
scalar OsgEarthNet.uav[93] utilizationSecMission 17731.237169805
scalar OsgEarthNet.uav[93] utilizationSecMaintenance 13668.649417824
scalar OsgEarthNet.uav[93] utilizationSecCharge 110392.43125879
scalar OsgEarthNet.uav[93] utilizationSecIdle 8632
scalar OsgEarthNet.uav[93] utilizationEnergyMission 86167.54127121
scalar OsgEarthNet.uav[93] utilizationEnergyMaintenance 62901.94342041
scalar OsgEarthNet.uav[93] utilizationEnergyCharge 146799.75415039
scalar OsgEarthNet.uav[93] utilizationEnergyOverdrawMission 0
scalar OsgEarthNet.uav[93] utilizationEnergyOverdrawMaintenance 0
scalar OsgEarthNet.uav[93] utilizationCountMissions 31
scalar OsgEarthNet.uav[93] utilizationCountManeuversMission 572
scalar OsgEarthNet.uav[93] utilizationCountManeuversMaintenance 62
scalar OsgEarthNet.uav[93] utilizationCountChargeState 31
scalar OsgEarthNet.uav[93] utilizationCountOverdrawnAfterMission 0
scalar OsgEarthNet.uav[93] utilizationCountIdleState 25
scalar OsgEarthNet.uav[93] utilizationFail 0
scalar OsgEarthNet.uav[93] simulationTime 150424.31884642
scalar OsgEarthNet.uav[94] utilizationSecMission 18100.731018442
scalar OsgEarthNet.uav[94] utilizationSecMaintenance 13605.70631855
scalar OsgEarthNet.uav[94] utilizationSecCharge 109425.62473765
scalar OsgEarthNet.uav[94] utilizationSecIdle 9292.255771777
scalar OsgEarthNet.uav[94] utilizationEnergyMission 89030.78237915
scalar OsgEarthNet.uav[94] utilizationEnergyMaintenance 63169.71680069
scalar OsgEarthNet.uav[94] utilizationEnergyCharge 148888.78637695
scalar OsgEarthNet.uav[94] utilizationEnergyOverdrawMission 0
scalar OsgEarthNet.uav[94] utilizationEnergyOverdrawMaintenance 0
scalar OsgEarthNet.uav[94] utilizationCountMissions 31
scalar OsgEarthNet.uav[94] utilizationCountManeuversMission 553
scalar OsgEarthNet.uav[94] utilizationCountManeuversMaintenance 62
scalar OsgEarthNet.uav[94] utilizationCountChargeState 31
scalar OsgEarthNet.uav[94] utilizationCountOverdrawnAfterMission 0
scalar OsgEarthNet.uav[94] utilizationCountIdleState 16
scalar OsgEarthNet.uav[94] utilizationFail 0
scalar OsgEarthNet.uav[94] simulationTime 150424.31884642
scalar OsgEarthNet.uav[95] utilizationSecMission 17318.389453693
scalar OsgEarthNet.uav[95] utilizationSecMaintenance 15543.282082472
scalar OsgEarthNet.uav[95] utilizationSecCharge 111817.93555806
scalar OsgEarthNet.uav[95] utilizationSecIdle 5744.7107521909
scalar OsgEarthNet.uav[95] utilizationEnergyMission 85055.982730865
scalar OsgEarthNet.uav[95] utilizationEnergyMaintenance 72391.1355896
scalar OsgEarthNet.uav[95] utilizationEnergyCharge 152587.95349121
scalar OsgEarthNet.uav[95] utilizationEnergyOverdrawMission 0
scalar OsgEarthNet.uav[95] utilizationEnergyOverdrawMaintenance 2.3950824737549
scalar OsgEarthNet.uav[95] utilizationCountMissions 32
scalar OsgEarthNet.uav[95] utilizationCountManeuversMission 550
scalar OsgEarthNet.uav[95] utilizationCountManeuversMaintenance 64
scalar OsgEarthNet.uav[95] utilizationCountChargeState 32
scalar OsgEarthNet.uav[95] utilizationCountOverdrawnAfterMission 1
scalar OsgEarthNet.uav[95] utilizationCountIdleState 13
scalar OsgEarthNet.uav[95] utilizationFail 0
scalar OsgEarthNet.uav[95] simulationTime 150424.31884642
scalar OsgEarthNet.uav[96] utilizationSecMission 17174.954625323
scalar OsgEarthNet.uav[96] utilizationSecMaintenance 15541.987757146
scalar OsgEarthNet.uav[96] utilizationSecCharge 114725.37546395
scalar OsgEarthNet.uav[96] utilizationSecIdle 2982
scalar OsgEarthNet.uav[96] utilizationEnergyMission 83213.695785522
scalar OsgEarthNet.uav[96] utilizationEnergyMaintenance 72065.059185028
scalar OsgEarthNet.uav[96] utilizationEnergyCharge 154733.24560547
scalar OsgEarthNet.uav[96] utilizationEnergyOverdrawMission 0
scalar OsgEarthNet.uav[96] utilizationEnergyOverdrawMaintenance 0
scalar OsgEarthNet.uav[96] utilizationCountMissions 32
scalar OsgEarthNet.uav[96] utilizationCountManeuversMission 516
scalar OsgEarthNet.uav[96] utilizationCountManeuversMaintenance 63
scalar OsgEarthNet.uav[96] utilizationCountChargeState 32
scalar OsgEarthNet.uav[96] utilizationCountOverdrawnAfterMission 0
scalar OsgEarthNet.uav[96] utilizationCountIdleState 13
scalar OsgEarthNet.uav[96] utilizationFail 0
scalar OsgEarthNet.uav[96] simulationTime 150424.31884642
scalar OsgEarthNet.uav[97] utilizationSecMission 16962.633939832
scalar OsgEarthNet.uav[97] utilizationSecMaintenance 14755.339857562
scalar OsgEarthNet.uav[97] utilizationSecCharge 110519.9157878
scalar OsgEarthNet.uav[97] utilizationSecIdle 8186.4282612234
scalar OsgEarthNet.uav[97] utilizationEnergyMission 83333.674030304
scalar OsgEarthNet.uav[97] utilizationEnergyMaintenance 68773.174385071
scalar OsgEarthNet.uav[97] utilizationEnergyCharge 150987.05786133
scalar OsgEarthNet.uav[97] utilizationEnergyOverdrawMission 0
scalar OsgEarthNet.uav[97] utilizationEnergyOverdrawMaintenance 435.44943237305
scalar OsgEarthNet.uav[97] utilizationCountMissions 31
scalar OsgEarthNet.uav[97] utilizationCountManeuversMission 511
scalar OsgEarthNet.uav[97] utilizationCountManeuversMaintenance 62
scalar OsgEarthNet.uav[97] utilizationCountChargeState 31
scalar OsgEarthNet.uav[97] utilizationCountOverdrawnAfterMission 4
scalar OsgEarthNet.uav[97] utilizationCountIdleState 14
scalar OsgEarthNet.uav[97] utilizationFail 0
scalar OsgEarthNet.uav[97] simulationTime 150424.31884642
scalar OsgEarthNet.uav[98] utilizationSecMission 18862.505567988
scalar OsgEarthNet.uav[98] utilizationSecMaintenance 12989.522380756
scalar OsgEarthNet.uav[98] utilizationSecCharge 111443.07028376
scalar OsgEarthNet.uav[98] utilizationSecIdle 7129.2196139157
scalar OsgEarthNet.uav[98] utilizationEnergyMission 90647.726356506
scalar OsgEarthNet.uav[98] utilizationEnergyMaintenance 59261.995769501
scalar OsgEarthNet.uav[98] utilizationEnergyCharge 150071.26464844
scalar OsgEarthNet.uav[98] utilizationEnergyOverdrawMission 0
scalar OsgEarthNet.uav[98] utilizationEnergyOverdrawMaintenance 0
scalar OsgEarthNet.uav[98] utilizationCountMissions 31
scalar OsgEarthNet.uav[98] utilizationCountManeuversMission 588
scalar OsgEarthNet.uav[98] utilizationCountManeuversMaintenance 62
scalar OsgEarthNet.uav[98] utilizationCountChargeState 31
scalar OsgEarthNet.uav[98] utilizationCountOverdrawnAfterMission 0
scalar OsgEarthNet.uav[98] utilizationCountIdleState 18
scalar OsgEarthNet.uav[98] utilizationFail 0
scalar OsgEarthNet.uav[98] simulationTime 150424.31884642
scalar OsgEarthNet.uav[99] utilizationSecMission 16940.118009591
scalar OsgEarthNet.uav[99] utilizationSecMaintenance 15032.159895497
scalar OsgEarthNet.uav[99] utilizationSecCharge 111260.03094133
scalar OsgEarthNet.uav[99] utilizationSecIdle 7192.009
scalar OsgEarthNet.uav[99] utilizationEnergyMission 82936.670204163
scalar OsgEarthNet.uav[99] utilizationEnergyMaintenance 69669.432239532
scalar OsgEarthNet.uav[99] utilizationEnergyCharge 150590.0546875
scalar OsgEarthNet.uav[99] utilizationEnergyOverdrawMission 0
scalar OsgEarthNet.uav[99] utilizationEnergyOverdrawMaintenance 0
scalar OsgEarthNet.uav[99] utilizationCountMissions 31
scalar OsgEarthNet.uav[99] utilizationCountManeuversMission 550
scalar OsgEarthNet.uav[99] utilizationCountManeuversMaintenance 62
scalar OsgEarthNet.uav[99] utilizationCountChargeState 31
scalar OsgEarthNet.uav[99] utilizationCountOverdrawnAfterMission 0
scalar OsgEarthNet.uav[99] utilizationCountIdleState 13
scalar OsgEarthNet.uav[99] utilizationFail 0
scalar OsgEarthNet.uav[99] simulationTime 150424.31884642
scalar OsgEarthNet.cs[0] usedPower 2764275.0507237
scalar OsgEarthNet.cs[0] chargedPower 2764275.0507237
scalar OsgEarthNet.cs[0] chargedMobileNodes 468
scalar OsgEarthNet.cs[0] reservations 579
scalar OsgEarthNet.cs[1] usedPower 2899018.8575589
scalar OsgEarthNet.cs[1] chargedPower 2899018.8575589
scalar OsgEarthNet.cs[1] chargedMobileNodes 485
scalar OsgEarthNet.cs[1] reservations 601
scalar OsgEarthNet.cs[2] usedPower 5369401.4312296
scalar OsgEarthNet.cs[2] chargedPower 5369401.4312296
scalar OsgEarthNet.cs[2] chargedMobileNodes 963
scalar OsgEarthNet.cs[2] reservations 1121

