version 2
run Szenario_Hotel_Gabelbach-54-20180707-23:01:39-25672
attr configname Szenario_Hotel_Gabelbach
attr datetime 20180707-23:01:39
attr experiment Szenario_Hotel_Gabelbach
attr inifile omnetpp.ini
attr iterationvars "$quant=0.95, $replM=0"
attr iterationvarsf quant=0.95,replM=0-
attr measurement "$quant=0.95, $replM=0"
attr network OsgEarthNet
attr processid 25672
attr repetition 6
attr replication #6
attr resultdir results
attr runnumber 54
attr seedset 54
itervar quant 0.95
itervar replM 0
param *.osgEarthScene.scene "\"Szenario_Hotel_Gabelbach.earth\""
param *.playgroundLatitude 50.6830269
param *.playgroundLongitude 10.8538055
param *.playgroundWidth 3500m
param *.playgroundHeight 3500m
param *.numCSs 3
param *.numUAVs 100
param *.cs[0].posX 3537m
param *.cs[0].posY 965m
param *.cs[0].posZ 538m
param *.cs[1].posX 312m
param *.cs[1].posY 1262m
param *.cs[1].posZ 539m
param *.cs[2].posX 2185m
param *.cs[2].posY 3026m
param *.cs[2].posZ 777m
param *.uav[*].predictionQuantile 0.95
param *.uav[*].replacementMethod 0
param *.*.timeStep 10s
param *.uav[*].commandPreviewCommandCount 20
param *.missionControl.missionFiles "\"missions\\\\Szenario_WB_Hotel_Gabelbach_Mission_Hotel.waypoints,missions\\\\Szenario_WB_Hotel_Gabelbach_Mission_Kickelhahn.waypoints,missions\\\\Szenario_WB_Hotel_Gabelbach_Mission_Ilmenau_Sportplatz.waypoints,missions\\\\Szenario_WB_Hotel_Gabelbach_Mission_Manebach_Mitte.waypoints,missions\\\\Szenario_WB_Hotel_Gabelbach_Mission_Manebach_Sued.waypoints,missions\\\\Szenario_WB_Hotel_Gabelbach_Hover_HoheSchlaufe.waypoints,missions\\\\Szenario_WB_Hotel_Gabelbach_Hover_Kickelhahn.waypoints,missions\\\\Szenario_WB_Hotel_Gabelbach_Hover_Gabelbachskopf.waypoints,missions\\\\Szenario_WB_Hotel_Gabelbach_Hover_Dachskopf.waypoints\""
param *.uav[0].startX 3537m
param *.uav[0].startY 965m
param *.uav[0].startZ 539m
param *.uav[1].startX 312m
param *.uav[1].startY 1262m
param *.uav[1].startZ 540m
param *.uav[2].startX 2185m
param *.uav[2].startY 3026m
param *.uav[2].startZ 778m
param *.uav[3].startX 3537m
param *.uav[3].startY 965m
param *.uav[3].startZ 539m
param *.uav[4].startX 312m
param *.uav[4].startY 1262m
param *.uav[4].startZ 540m
param *.uav[5].startX 2185m
param *.uav[5].startY 3026m
param *.uav[5].startZ 778m
param *.uav[6].startX 3537m
param *.uav[6].startY 965m
param *.uav[6].startZ 539m
param *.uav[7].startX 312m
param *.uav[7].startY 1262m
param *.uav[7].startZ 540m
param *.uav[8].startX 2185m
param *.uav[8].startY 3026m
param *.uav[8].startZ 778m
param *.uav[9].startX 3537m
param *.uav[9].startY 965m
param *.uav[9].startZ 539m
param *.uav[10].startX 3537m
param *.uav[10].startY 965m
param *.uav[10].startZ 539m
param *.uav[11].startX 312m
param *.uav[11].startY 1262m
param *.uav[11].startZ 540m
param *.uav[12].startX 2185m
param *.uav[12].startY 3026m
param *.uav[12].startZ 778m
param *.uav[13].startX 3537m
param *.uav[13].startY 965m
param *.uav[13].startZ 539m
param *.uav[14].startX 312m
param *.uav[14].startY 1262m
param *.uav[14].startZ 540m
param *.uav[15].startX 2185m
param *.uav[15].startY 3026m
param *.uav[15].startZ 778m
param *.uav[16].startX 3537m
param *.uav[16].startY 965m
param *.uav[16].startZ 539m
param *.uav[17].startX 312m
param *.uav[17].startY 1262m
param *.uav[17].startZ 540m
param *.uav[18].startX 2185m
param *.uav[18].startY 3026m
param *.uav[18].startZ 778m
param *.uav[19].startX 3537m
param *.uav[19].startY 965m
param *.uav[19].startZ 539m
param *.uav[20].startX 3537m
param *.uav[20].startY 965m
param *.uav[20].startZ 539m
param *.uav[21].startX 312m
param *.uav[21].startY 1262m
param *.uav[21].startZ 540m
param *.uav[22].startX 2185m
param *.uav[22].startY 3026m
param *.uav[22].startZ 778m
param *.uav[23].startX 3537m
param *.uav[23].startY 965m
param *.uav[23].startZ 539m
param *.uav[24].startX 312m
param *.uav[24].startY 1262m
param *.uav[24].startZ 540m
param *.uav[25].startX 2185m
param *.uav[25].startY 3026m
param *.uav[25].startZ 778m
param *.uav[26].startX 3537m
param *.uav[26].startY 965m
param *.uav[26].startZ 539m
param *.uav[27].startX 312m
param *.uav[27].startY 1262m
param *.uav[27].startZ 540m
param *.uav[28].startX 2185m
param *.uav[28].startY 3026m
param *.uav[28].startZ 778m
param *.uav[29].startX 3537m
param *.uav[29].startY 965m
param *.uav[29].startZ 539m
param *.uav[30].startX 3537m
param *.uav[30].startY 965m
param *.uav[30].startZ 539m
param *.uav[31].startX 312m
param *.uav[31].startY 1262m
param *.uav[31].startZ 540m
param *.uav[32].startX 2185m
param *.uav[32].startY 3026m
param *.uav[32].startZ 778m
param *.uav[33].startX 3537m
param *.uav[33].startY 965m
param *.uav[33].startZ 539m
param *.uav[34].startX 312m
param *.uav[34].startY 1262m
param *.uav[34].startZ 540m
param *.uav[35].startX 2185m
param *.uav[35].startY 3026m
param *.uav[35].startZ 778m
param *.uav[36].startX 3537m
param *.uav[36].startY 965m
param *.uav[36].startZ 539m
param *.uav[37].startX 312m
param *.uav[37].startY 1262m
param *.uav[37].startZ 540m
param *.uav[38].startX 2185m
param *.uav[38].startY 3026m
param *.uav[38].startZ 778m
param *.uav[39].startX 3537m
param *.uav[39].startY 965m
param *.uav[39].startZ 539m
param *.uav[40].startX 3537m
param *.uav[40].startY 965m
param *.uav[40].startZ 539m
param *.uav[41].startX 312m
param *.uav[41].startY 1262m
param *.uav[41].startZ 540m
param *.uav[42].startX 2185m
param *.uav[42].startY 3026m
param *.uav[42].startZ 778m
param *.uav[43].startX 3537m
param *.uav[43].startY 965m
param *.uav[43].startZ 539m
param *.uav[44].startX 312m
param *.uav[44].startY 1262m
param *.uav[44].startZ 540m
param *.uav[45].startX 2185m
param *.uav[45].startY 3026m
param *.uav[45].startZ 778m
param *.uav[46].startX 3537m
param *.uav[46].startY 965m
param *.uav[46].startZ 539m
param *.uav[47].startX 312m
param *.uav[47].startY 1262m
param *.uav[47].startZ 540m
param *.uav[48].startX 2185m
param *.uav[48].startY 3026m
param *.uav[48].startZ 778m
param *.uav[49].startX 3537m
param *.uav[49].startY 965m
param *.uav[49].startZ 539m
param *.uav[50].startX 3537m
param *.uav[50].startY 965m
param *.uav[50].startZ 539m
param *.uav[51].startX 312m
param *.uav[51].startY 1262m
param *.uav[51].startZ 540m
param *.uav[52].startX 2185m
param *.uav[52].startY 3026m
param *.uav[52].startZ 778m
param *.uav[53].startX 3537m
param *.uav[53].startY 965m
param *.uav[53].startZ 539m
param *.uav[54].startX 312m
param *.uav[54].startY 1262m
param *.uav[54].startZ 540m
param *.uav[55].startX 2185m
param *.uav[55].startY 3026m
param *.uav[55].startZ 778m
param *.uav[56].startX 3537m
param *.uav[56].startY 965m
param *.uav[56].startZ 539m
param *.uav[57].startX 312m
param *.uav[57].startY 1262m
param *.uav[57].startZ 540m
param *.uav[58].startX 2185m
param *.uav[58].startY 3026m
param *.uav[58].startZ 778m
param *.uav[59].startX 3537m
param *.uav[59].startY 965m
param *.uav[59].startZ 539m
param *.uav[60].startX 3537m
param *.uav[60].startY 965m
param *.uav[60].startZ 539m
param *.uav[61].startX 312m
param *.uav[61].startY 1262m
param *.uav[61].startZ 540m
param *.uav[62].startX 2185m
param *.uav[62].startY 3026m
param *.uav[62].startZ 778m
param *.uav[63].startX 3537m
param *.uav[63].startY 965m
param *.uav[63].startZ 539m
param *.uav[64].startX 312m
param *.uav[64].startY 1262m
param *.uav[64].startZ 540m
param *.uav[65].startX 2185m
param *.uav[65].startY 3026m
param *.uav[65].startZ 778m
param *.uav[66].startX 3537m
param *.uav[66].startY 965m
param *.uav[66].startZ 539m
param *.uav[67].startX 312m
param *.uav[67].startY 1262m
param *.uav[67].startZ 540m
param *.uav[68].startX 2185m
param *.uav[68].startY 3026m
param *.uav[68].startZ 778m
param *.uav[69].startX 3537m
param *.uav[69].startY 965m
param *.uav[69].startZ 539m
param *.uav[70].startX 3537m
param *.uav[70].startY 965m
param *.uav[70].startZ 539m
param *.uav[71].startX 312m
param *.uav[71].startY 1262m
param *.uav[71].startZ 540m
param *.uav[72].startX 2185m
param *.uav[72].startY 3026m
param *.uav[72].startZ 778m
param *.uav[73].startX 3537m
param *.uav[73].startY 965m
param *.uav[73].startZ 539m
param *.uav[74].startX 312m
param *.uav[74].startY 1262m
param *.uav[74].startZ 540m
param *.uav[75].startX 2185m
param *.uav[75].startY 3026m
param *.uav[75].startZ 778m
param *.uav[76].startX 3537m
param *.uav[76].startY 965m
param *.uav[76].startZ 539m
param *.uav[77].startX 312m
param *.uav[77].startY 1262m
param *.uav[77].startZ 540m
param *.uav[78].startX 2185m
param *.uav[78].startY 3026m
param *.uav[78].startZ 778m
param *.uav[79].startX 3537m
param *.uav[79].startY 965m
param *.uav[79].startZ 539m
param *.uav[80].startX 3537m
param *.uav[80].startY 965m
param *.uav[80].startZ 539m
param *.uav[81].startX 312m
param *.uav[81].startY 1262m
param *.uav[81].startZ 540m
param *.uav[82].startX 2185m
param *.uav[82].startY 3026m
param *.uav[82].startZ 778m
param *.uav[83].startX 3537m
param *.uav[83].startY 965m
param *.uav[83].startZ 539m
param *.uav[84].startX 312m
param *.uav[84].startY 1262m
param *.uav[84].startZ 540m
param *.uav[85].startX 2185m
param *.uav[85].startY 3026m
param *.uav[85].startZ 778m
param *.uav[86].startX 3537m
param *.uav[86].startY 965m
param *.uav[86].startZ 539m
param *.uav[87].startX 312m
param *.uav[87].startY 1262m
param *.uav[87].startZ 540m
param *.uav[88].startX 2185m
param *.uav[88].startY 3026m
param *.uav[88].startZ 778m
param *.uav[89].startX 3537m
param *.uav[89].startY 965m
param *.uav[89].startZ 539m
param *.uav[90].startX 3537m
param *.uav[90].startY 965m
param *.uav[90].startZ 539m
param *.uav[91].startX 312m
param *.uav[91].startY 1262m
param *.uav[91].startZ 540m
param *.uav[92].startX 2185m
param *.uav[92].startY 3026m
param *.uav[92].startZ 778m
param *.uav[93].startX 3537m
param *.uav[93].startY 965m
param *.uav[93].startZ 539m
param *.uav[94].startX 312m
param *.uav[94].startY 1262m
param *.uav[94].startZ 540m
param *.uav[95].startX 2185m
param *.uav[95].startY 3026m
param *.uav[95].startZ 778m
param *.uav[96].startX 3537m
param *.uav[96].startY 965m
param *.uav[96].startZ 539m
param *.uav[97].startX 312m
param *.uav[97].startY 1262m
param *.uav[97].startZ 540m
param *.uav[98].startX 2185m
param *.uav[98].startY 3026m
param *.uav[98].startZ 778m
param *.uav[99].startX 3537m
param *.uav[99].startY 965m
param *.uav[99].startZ 539m
param *.osgEarthScene.scene "\"boston.earth\""
param *.playgroundLatitude 42.3558
param *.playgroundLongitude -71.0677
param *.playgroundWidth 400m
param *.playgroundHeight 200m
param *.channelController.connectionColor "\"#0000FF40\""
param *.channelController.showConnections false
param *.uav[*].modelURL "\"quadrocopter.small.obj.15.scale.0,0,90.rot\""
param *.uav[*].labelColor "\"#FF7C00CC\""
param *.uav[*].label2Color "\"#FF7C00EE\""
param *.uav[*].batteryCapacity 5200mAh
param *.uav[*].batteryRemaining uav[index].batteryCapacity
param *.uav[*].predictionQuantile 0.95
param *.uav[*].replacementMethod 2
param *.uav[*].weightedSumWeight 0.5
param *.cs[*].modelURL "\"chargingstation_v1.osgt.1.scale.0,0,0.rot.0,0,-15e-1.trans\""
param *.cs[*].spotsWaiting 999
param *.cs[*].spotsCharging 999
param *.cs[*].chargeEffectivenessPercentage 100
param *.cs[*].nonLinearPhaseStartPercentage 85
param *.cs[*].chargeCurrent 6.0A
param *.cs[*].prioritizeFastCharge true
param *.missionControl.replacementSearchMethod 0
param *.*.timeStep 9s

scalar OsgEarthNet.uav[0] utilizationSecMission 27131.322236699
scalar OsgEarthNet.uav[0] utilizationSecMaintenance 21776.558862088
scalar OsgEarthNet.uav[0] utilizationSecCharge 178570.11490121
scalar OsgEarthNet.uav[0] utilizationSecIdle 31722.003
scalar OsgEarthNet.uav[0] utilizationEnergyMission 131630.66667557
scalar OsgEarthNet.uav[0] utilizationEnergyMaintenance 100616.49702454
scalar OsgEarthNet.uav[0] utilizationEnergyCharge 234664.11181641
scalar OsgEarthNet.uav[0] utilizationEnergyOverdrawMission 0
scalar OsgEarthNet.uav[0] utilizationEnergyOverdrawMaintenance 0
scalar OsgEarthNet.uav[0] utilizationCountMissions 53
scalar OsgEarthNet.uav[0] utilizationCountManeuversMission 889
scalar OsgEarthNet.uav[0] utilizationCountManeuversMaintenance 106
scalar OsgEarthNet.uav[0] utilizationCountChargeState 53
scalar OsgEarthNet.uav[0] utilizationCountOverdrawnAfterMission 0
scalar OsgEarthNet.uav[0] utilizationCountIdleState 53
scalar OsgEarthNet.uav[0] utilizationFail 0
scalar OsgEarthNet.uav[0] simulationTime 259200
scalar OsgEarthNet.uav[1] utilizationSecMission 24988.493121519
scalar OsgEarthNet.uav[1] utilizationSecMaintenance 24783.23714727
scalar OsgEarthNet.uav[1] utilizationSecCharge 182346.26573121
scalar OsgEarthNet.uav[1] utilizationSecIdle 27082.003
scalar OsgEarthNet.uav[1] utilizationEnergyMission 120766.17554092
scalar OsgEarthNet.uav[1] utilizationEnergyMaintenance 116035.80117416
scalar OsgEarthNet.uav[1] utilizationEnergyCharge 237648.6496582
scalar OsgEarthNet.uav[1] utilizationEnergyOverdrawMission 0
scalar OsgEarthNet.uav[1] utilizationEnergyOverdrawMaintenance 302.78076171875
scalar OsgEarthNet.uav[1] utilizationCountMissions 54
scalar OsgEarthNet.uav[1] utilizationCountManeuversMission 817
scalar OsgEarthNet.uav[1] utilizationCountManeuversMaintenance 108
scalar OsgEarthNet.uav[1] utilizationCountChargeState 54
scalar OsgEarthNet.uav[1] utilizationCountOverdrawnAfterMission 1
scalar OsgEarthNet.uav[1] utilizationCountIdleState 54
scalar OsgEarthNet.uav[1] utilizationFail 0
scalar OsgEarthNet.uav[1] simulationTime 259200
scalar OsgEarthNet.uav[2] utilizationSecMission 27422.704841315
scalar OsgEarthNet.uav[2] utilizationSecMaintenance 21067.437519577
scalar OsgEarthNet.uav[2] utilizationSecCharge 174300.43129182
scalar OsgEarthNet.uav[2] utilizationSecIdle 36409.42534729
scalar OsgEarthNet.uav[2] utilizationEnergyMission 132892.49250793
scalar OsgEarthNet.uav[2] utilizationEnergyMaintenance 97051.602386475
scalar OsgEarthNet.uav[2] utilizationEnergyCharge 228304.63818359
scalar OsgEarthNet.uav[2] utilizationEnergyOverdrawMission 0
scalar OsgEarthNet.uav[2] utilizationEnergyOverdrawMaintenance 0
scalar OsgEarthNet.uav[2] utilizationCountMissions 52
scalar OsgEarthNet.uav[2] utilizationCountManeuversMission 896
scalar OsgEarthNet.uav[2] utilizationCountManeuversMaintenance 104
scalar OsgEarthNet.uav[2] utilizationCountChargeState 52
scalar OsgEarthNet.uav[2] utilizationCountOverdrawnAfterMission 0
scalar OsgEarthNet.uav[2] utilizationCountIdleState 52
scalar OsgEarthNet.uav[2] utilizationFail 0
scalar OsgEarthNet.uav[2] simulationTime 259200
scalar OsgEarthNet.uav[3] utilizationSecMission 26804.243816659
scalar OsgEarthNet.uav[3] utilizationSecMaintenance 24875.410426104
scalar OsgEarthNet.uav[3] utilizationSecCharge 183908.34475724
scalar OsgEarthNet.uav[3] utilizationSecIdle 23612
scalar OsgEarthNet.uav[3] utilizationEnergyMission 128406.4407196
scalar OsgEarthNet.uav[3] utilizationEnergyMaintenance 115535.08560562
scalar OsgEarthNet.uav[3] utilizationEnergyCharge 240594.6505127
scalar OsgEarthNet.uav[3] utilizationEnergyOverdrawMission 0
scalar OsgEarthNet.uav[3] utilizationEnergyOverdrawMaintenance 0
scalar OsgEarthNet.uav[3] utilizationCountMissions 55
scalar OsgEarthNet.uav[3] utilizationCountManeuversMission 766
scalar OsgEarthNet.uav[3] utilizationCountManeuversMaintenance 109
scalar OsgEarthNet.uav[3] utilizationCountChargeState 55
scalar OsgEarthNet.uav[3] utilizationCountOverdrawnAfterMission 0
scalar OsgEarthNet.uav[3] utilizationCountIdleState 55
scalar OsgEarthNet.uav[3] utilizationFail 0
scalar OsgEarthNet.uav[3] simulationTime 259200
scalar OsgEarthNet.uav[4] utilizationSecMission 27245.121546808
scalar OsgEarthNet.uav[4] utilizationSecMaintenance 22901.952885295
scalar OsgEarthNet.uav[4] utilizationSecCharge 181730.9225679
scalar OsgEarthNet.uav[4] utilizationSecIdle 27322.002
scalar OsgEarthNet.uav[4] utilizationEnergyMission 131216.52707291
scalar OsgEarthNet.uav[4] utilizationEnergyMaintenance 106253.1695137
scalar OsgEarthNet.uav[4] utilizationEnergyCharge 238251.79345703
scalar OsgEarthNet.uav[4] utilizationEnergyOverdrawMission 0
scalar OsgEarthNet.uav[4] utilizationEnergyOverdrawMaintenance 0
scalar OsgEarthNet.uav[4] utilizationCountMissions 54
scalar OsgEarthNet.uav[4] utilizationCountManeuversMission 865
scalar OsgEarthNet.uav[4] utilizationCountManeuversMaintenance 108
scalar OsgEarthNet.uav[4] utilizationCountChargeState 54
scalar OsgEarthNet.uav[4] utilizationCountOverdrawnAfterMission 0
scalar OsgEarthNet.uav[4] utilizationCountIdleState 54
scalar OsgEarthNet.uav[4] utilizationFail 0
scalar OsgEarthNet.uav[4] simulationTime 259200
scalar OsgEarthNet.uav[5] utilizationSecMission 28028.796719105
scalar OsgEarthNet.uav[5] utilizationSecMaintenance 22815.25468372
scalar OsgEarthNet.uav[5] utilizationSecCharge 183583.94759717
scalar OsgEarthNet.uav[5] utilizationSecIdle 24772
scalar OsgEarthNet.uav[5] utilizationEnergyMission 134482.66009332
scalar OsgEarthNet.uav[5] utilizationEnergyMaintenance 105647.60748672
scalar OsgEarthNet.uav[5] utilizationEnergyCharge 241252.79785156
scalar OsgEarthNet.uav[5] utilizationEnergyOverdrawMission 0
scalar OsgEarthNet.uav[5] utilizationEnergyOverdrawMaintenance 0
scalar OsgEarthNet.uav[5] utilizationCountMissions 54
scalar OsgEarthNet.uav[5] utilizationCountManeuversMission 802
scalar OsgEarthNet.uav[5] utilizationCountManeuversMaintenance 107
scalar OsgEarthNet.uav[5] utilizationCountChargeState 54
scalar OsgEarthNet.uav[5] utilizationCountOverdrawnAfterMission 0
scalar OsgEarthNet.uav[5] utilizationCountIdleState 53
scalar OsgEarthNet.uav[5] utilizationFail 0
scalar OsgEarthNet.uav[5] simulationTime 259200
scalar OsgEarthNet.uav[6] utilizationSecMission 17185.007491821
scalar OsgEarthNet.uav[6] utilizationSecMaintenance 16558.560246956
scalar OsgEarthNet.uav[6] utilizationSecCharge 120870
scalar OsgEarthNet.uav[6] utilizationSecIdle 104586.43126122
scalar OsgEarthNet.uav[6] utilizationEnergyMission 84041.039999773
scalar OsgEarthNet.uav[6] utilizationEnergyMaintenance 76973.110031128
scalar OsgEarthNet.uav[6] utilizationEnergyCharge 157522.90356445
scalar OsgEarthNet.uav[6] utilizationEnergyOverdrawMission 0
scalar OsgEarthNet.uav[6] utilizationEnergyOverdrawMaintenance 0
scalar OsgEarthNet.uav[6] utilizationCountMissions 36
scalar OsgEarthNet.uav[6] utilizationCountManeuversMission 577
scalar OsgEarthNet.uav[6] utilizationCountManeuversMaintenance 73
scalar OsgEarthNet.uav[6] utilizationCountChargeState 36
scalar OsgEarthNet.uav[6] utilizationCountOverdrawnAfterMission 0
scalar OsgEarthNet.uav[6] utilizationCountIdleState 37
scalar OsgEarthNet.uav[6] utilizationFail 0
scalar OsgEarthNet.uav[6] simulationTime 259200
scalar OsgEarthNet.uav[7] utilizationSecMission 22974.436662208
scalar OsgEarthNet.uav[7] utilizationSecMaintenance 19077.809646641
scalar OsgEarthNet.uav[7] utilizationSecCharge 153620
scalar OsgEarthNet.uav[7] utilizationSecIdle 63527.752691151
scalar OsgEarthNet.uav[7] utilizationEnergyMission 112762.99863815
scalar OsgEarthNet.uav[7] utilizationEnergyMaintenance 88587.301399231
scalar OsgEarthNet.uav[7] utilizationEnergyCharge 200896.64990234
scalar OsgEarthNet.uav[7] utilizationEnergyOverdrawMission 0
scalar OsgEarthNet.uav[7] utilizationEnergyOverdrawMaintenance 0
scalar OsgEarthNet.uav[7] utilizationCountMissions 45
scalar OsgEarthNet.uav[7] utilizationCountManeuversMission 767
scalar OsgEarthNet.uav[7] utilizationCountManeuversMaintenance 90
scalar OsgEarthNet.uav[7] utilizationCountChargeState 45
scalar OsgEarthNet.uav[7] utilizationCountOverdrawnAfterMission 0
scalar OsgEarthNet.uav[7] utilizationCountIdleState 46
scalar OsgEarthNet.uav[7] utilizationFail 0
scalar OsgEarthNet.uav[7] simulationTime 259200
scalar OsgEarthNet.uav[8] utilizationSecMission 21187.056772197
scalar OsgEarthNet.uav[8] utilizationSecMaintenance 21048.418566061
scalar OsgEarthNet.uav[8] utilizationSecCharge 148832.51766174
scalar OsgEarthNet.uav[8] utilizationSecIdle 68132.006
scalar OsgEarthNet.uav[8] utilizationEnergyMission 102481.32022476
scalar OsgEarthNet.uav[8] utilizationEnergyMaintenance 95596.317840576
scalar OsgEarthNet.uav[8] utilizationEnergyCharge 195983.76379395
scalar OsgEarthNet.uav[8] utilizationEnergyOverdrawMission 0
scalar OsgEarthNet.uav[8] utilizationEnergyOverdrawMaintenance 0
scalar OsgEarthNet.uav[8] utilizationCountMissions 44
scalar OsgEarthNet.uav[8] utilizationCountManeuversMission 649
scalar OsgEarthNet.uav[8] utilizationCountManeuversMaintenance 88
scalar OsgEarthNet.uav[8] utilizationCountChargeState 44
scalar OsgEarthNet.uav[8] utilizationCountOverdrawnAfterMission 0
scalar OsgEarthNet.uav[8] utilizationCountIdleState 44
scalar OsgEarthNet.uav[8] utilizationFail 0
scalar OsgEarthNet.uav[8] simulationTime 259200
scalar OsgEarthNet.uav[9] utilizationSecMission 4701.6130681217
scalar OsgEarthNet.uav[9] utilizationSecMaintenance 3764.6768641533
scalar OsgEarthNet.uav[9] utilizationSecCharge 30530
scalar OsgEarthNet.uav[9] utilizationSecIdle 220203.70906772
scalar OsgEarthNet.uav[9] utilizationEnergyMission 22579.16999054
scalar OsgEarthNet.uav[9] utilizationEnergyMaintenance 17652.839775085
scalar OsgEarthNet.uav[9] utilizationEnergyCharge 40104.192626953
scalar OsgEarthNet.uav[9] utilizationEnergyOverdrawMission 0
scalar OsgEarthNet.uav[9] utilizationEnergyOverdrawMaintenance 0
scalar OsgEarthNet.uav[9] utilizationCountMissions 9
scalar OsgEarthNet.uav[9] utilizationCountManeuversMission 172
scalar OsgEarthNet.uav[9] utilizationCountManeuversMaintenance 18
scalar OsgEarthNet.uav[9] utilizationCountChargeState 9
scalar OsgEarthNet.uav[9] utilizationCountOverdrawnAfterMission 0
scalar OsgEarthNet.uav[9] utilizationCountIdleState 10
scalar OsgEarthNet.uav[9] utilizationFail 0
scalar OsgEarthNet.uav[9] simulationTime 259200
scalar OsgEarthNet.uav[10] utilizationSecMission 22720.421141229
scalar OsgEarthNet.uav[10] utilizationSecMaintenance 16967.049302012
scalar OsgEarthNet.uav[10] utilizationSecCharge 143610
scalar OsgEarthNet.uav[10] utilizationSecIdle 75902.528556758
scalar OsgEarthNet.uav[10] utilizationEnergyMission 111369.55208588
scalar OsgEarthNet.uav[10] utilizationEnergyMaintenance 77452.182701111
scalar OsgEarthNet.uav[10] utilizationEnergyCharge 188225.16674805
scalar OsgEarthNet.uav[10] utilizationEnergyOverdrawMission 0
scalar OsgEarthNet.uav[10] utilizationEnergyOverdrawMaintenance 0
scalar OsgEarthNet.uav[10] utilizationCountMissions 42
scalar OsgEarthNet.uav[10] utilizationCountManeuversMission 750
scalar OsgEarthNet.uav[10] utilizationCountManeuversMaintenance 84
scalar OsgEarthNet.uav[10] utilizationCountChargeState 42
scalar OsgEarthNet.uav[10] utilizationCountOverdrawnAfterMission 0
scalar OsgEarthNet.uav[10] utilizationCountIdleState 43
scalar OsgEarthNet.uav[10] utilizationFail 0
scalar OsgEarthNet.uav[10] simulationTime 259200
scalar OsgEarthNet.uav[11] utilizationSecMission 17064.519020979
scalar OsgEarthNet.uav[11] utilizationSecMaintenance 17178.677103715
scalar OsgEarthNet.uav[11] utilizationSecCharge 122903.04387465
scalar OsgEarthNet.uav[11] utilizationSecIdle 102053.75900066
scalar OsgEarthNet.uav[11] utilizationEnergyMission 82095.219848633
scalar OsgEarthNet.uav[11] utilizationEnergyMaintenance 80313.803688049
scalar OsgEarthNet.uav[11] utilizationEnergyCharge 161871.59570312
scalar OsgEarthNet.uav[11] utilizationEnergyOverdrawMission 0
scalar OsgEarthNet.uav[11] utilizationEnergyOverdrawMaintenance 26.669494628906
scalar OsgEarthNet.uav[11] utilizationCountMissions 36
scalar OsgEarthNet.uav[11] utilizationCountManeuversMission 527
scalar OsgEarthNet.uav[11] utilizationCountManeuversMaintenance 72
scalar OsgEarthNet.uav[11] utilizationCountChargeState 36
scalar OsgEarthNet.uav[11] utilizationCountOverdrawnAfterMission 1
scalar OsgEarthNet.uav[11] utilizationCountIdleState 36
scalar OsgEarthNet.uav[11] utilizationFail 0
scalar OsgEarthNet.uav[11] simulationTime 259200
scalar OsgEarthNet.uav[12] utilizationSecMission 10273.858323834
scalar OsgEarthNet.uav[12] utilizationSecMaintenance 6917.0587387338
scalar OsgEarthNet.uav[12] utilizationSecCharge 62030
scalar OsgEarthNet.uav[12] utilizationSecIdle 179979.08193743
scalar OsgEarthNet.uav[12] utilizationEnergyMission 49084.859104156
scalar OsgEarthNet.uav[12] utilizationEnergyMaintenance 31959.801818848
scalar OsgEarthNet.uav[12] utilizationEnergyCharge 81730.42578125
scalar OsgEarthNet.uav[12] utilizationEnergyOverdrawMission 0
scalar OsgEarthNet.uav[12] utilizationEnergyOverdrawMaintenance 0
scalar OsgEarthNet.uav[12] utilizationCountMissions 18
scalar OsgEarthNet.uav[12] utilizationCountManeuversMission 298
scalar OsgEarthNet.uav[12] utilizationCountManeuversMaintenance 36
scalar OsgEarthNet.uav[12] utilizationCountChargeState 18
scalar OsgEarthNet.uav[12] utilizationCountOverdrawnAfterMission 0
scalar OsgEarthNet.uav[12] utilizationCountIdleState 19
scalar OsgEarthNet.uav[12] utilizationFail 0
scalar OsgEarthNet.uav[12] simulationTime 259200
scalar OsgEarthNet.uav[13] utilizationSecMission 23211.803012624
scalar OsgEarthNet.uav[13] utilizationSecMaintenance 20417.746308758
scalar OsgEarthNet.uav[13] utilizationSecCharge 158810
scalar OsgEarthNet.uav[13] utilizationSecIdle 56760.449678618
scalar OsgEarthNet.uav[13] utilizationEnergyMission 112180.97162628
scalar OsgEarthNet.uav[13] utilizationEnergyMaintenance 94282.395252228
scalar OsgEarthNet.uav[13] utilizationEnergyCharge 207653.0246582
scalar OsgEarthNet.uav[13] utilizationEnergyOverdrawMission 0
scalar OsgEarthNet.uav[13] utilizationEnergyOverdrawMaintenance 0
scalar OsgEarthNet.uav[13] utilizationCountMissions 47
scalar OsgEarthNet.uav[13] utilizationCountManeuversMission 782
scalar OsgEarthNet.uav[13] utilizationCountManeuversMaintenance 94
scalar OsgEarthNet.uav[13] utilizationCountChargeState 47
scalar OsgEarthNet.uav[13] utilizationCountOverdrawnAfterMission 0
scalar OsgEarthNet.uav[13] utilizationCountIdleState 48
scalar OsgEarthNet.uav[13] utilizationFail 0
scalar OsgEarthNet.uav[13] simulationTime 259200
scalar OsgEarthNet.uav[14] utilizationSecMission 8019.5754166565
scalar OsgEarthNet.uav[14] utilizationSecMaintenance 6375.4430590447
scalar OsgEarthNet.uav[14] utilizationSecCharge 53640
scalar OsgEarthNet.uav[14] utilizationSecIdle 191164.9805243
scalar OsgEarthNet.uav[14] utilizationEnergyMission 38947.192333221
scalar OsgEarthNet.uav[14] utilizationEnergyMaintenance 29521.43290329
scalar OsgEarthNet.uav[14] utilizationEnergyCharge 69660.692871094
scalar OsgEarthNet.uav[14] utilizationEnergyOverdrawMission 0
scalar OsgEarthNet.uav[14] utilizationEnergyOverdrawMaintenance 0
scalar OsgEarthNet.uav[14] utilizationCountMissions 16
scalar OsgEarthNet.uav[14] utilizationCountManeuversMission 294
scalar OsgEarthNet.uav[14] utilizationCountManeuversMaintenance 32
scalar OsgEarthNet.uav[14] utilizationCountChargeState 16
scalar OsgEarthNet.uav[14] utilizationCountOverdrawnAfterMission 0
scalar OsgEarthNet.uav[14] utilizationCountIdleState 17
scalar OsgEarthNet.uav[14] utilizationFail 0
scalar OsgEarthNet.uav[14] simulationTime 259200
scalar OsgEarthNet.uav[15] utilizationSecMission 24174.281867104
scalar OsgEarthNet.uav[15] utilizationSecMaintenance 23523.714132896
scalar OsgEarthNet.uav[15] utilizationSecCharge 173880
scalar OsgEarthNet.uav[15] utilizationSecIdle 37622.003
scalar OsgEarthNet.uav[15] utilizationEnergyMission 118745.46836539
scalar OsgEarthNet.uav[15] utilizationEnergyMaintenance 109828.44311905
scalar OsgEarthNet.uav[15] utilizationEnergyCharge 228028.58935547
scalar OsgEarthNet.uav[15] utilizationEnergyOverdrawMission 0
scalar OsgEarthNet.uav[15] utilizationEnergyOverdrawMaintenance 0
scalar OsgEarthNet.uav[15] utilizationCountMissions 51
scalar OsgEarthNet.uav[15] utilizationCountManeuversMission 839
scalar OsgEarthNet.uav[15] utilizationCountManeuversMaintenance 103
scalar OsgEarthNet.uav[15] utilizationCountChargeState 51
scalar OsgEarthNet.uav[15] utilizationCountOverdrawnAfterMission 0
scalar OsgEarthNet.uav[15] utilizationCountIdleState 52
scalar OsgEarthNet.uav[15] utilizationFail 0
scalar OsgEarthNet.uav[15] simulationTime 259200
scalar OsgEarthNet.uav[16] utilizationSecMission 26112.106224817
scalar OsgEarthNet.uav[16] utilizationSecMaintenance 23949.774505678
scalar OsgEarthNet.uav[16] utilizationSecCharge 178656.1142695
scalar OsgEarthNet.uav[16] utilizationSecIdle 30482.004
scalar OsgEarthNet.uav[16] utilizationEnergyMission 126541.18647385
scalar OsgEarthNet.uav[16] utilizationEnergyMaintenance 111048.61257172
scalar OsgEarthNet.uav[16] utilizationEnergyCharge 235216.13867188
scalar OsgEarthNet.uav[16] utilizationEnergyOverdrawMission 0
scalar OsgEarthNet.uav[16] utilizationEnergyOverdrawMaintenance 0
scalar OsgEarthNet.uav[16] utilizationCountMissions 53
scalar OsgEarthNet.uav[16] utilizationCountManeuversMission 824
scalar OsgEarthNet.uav[16] utilizationCountManeuversMaintenance 106
scalar OsgEarthNet.uav[16] utilizationCountChargeState 53
scalar OsgEarthNet.uav[16] utilizationCountOverdrawnAfterMission 0
scalar OsgEarthNet.uav[16] utilizationCountIdleState 53
scalar OsgEarthNet.uav[16] utilizationFail 0
scalar OsgEarthNet.uav[16] simulationTime 259200
scalar OsgEarthNet.uav[17] utilizationSecMission 27747.547133781
scalar OsgEarthNet.uav[17] utilizationSecMaintenance 22274.099258956
scalar OsgEarthNet.uav[17] utilizationSecCharge 178990
scalar OsgEarthNet.uav[17] utilizationSecIdle 30188.352607263
scalar OsgEarthNet.uav[17] utilizationEnergyMission 130747.80155182
scalar OsgEarthNet.uav[17] utilizationEnergyMaintenance 104318.83008181
scalar OsgEarthNet.uav[17] utilizationEnergyCharge 235034.12768555
scalar OsgEarthNet.uav[17] utilizationEnergyOverdrawMission 0
scalar OsgEarthNet.uav[17] utilizationEnergyOverdrawMaintenance 44.710586547852
scalar OsgEarthNet.uav[17] utilizationCountMissions 52
scalar OsgEarthNet.uav[17] utilizationCountManeuversMission 661
scalar OsgEarthNet.uav[17] utilizationCountManeuversMaintenance 105
scalar OsgEarthNet.uav[17] utilizationCountChargeState 52
scalar OsgEarthNet.uav[17] utilizationCountOverdrawnAfterMission 1
scalar OsgEarthNet.uav[17] utilizationCountIdleState 53
scalar OsgEarthNet.uav[17] utilizationFail 0
scalar OsgEarthNet.uav[17] simulationTime 259200
scalar OsgEarthNet.uav[18] utilizationSecMission 20570.882556627
scalar OsgEarthNet.uav[18] utilizationSecMaintenance 16747.662435668
scalar OsgEarthNet.uav[18] utilizationSecCharge 133631.61719366
scalar OsgEarthNet.uav[18] utilizationSecIdle 88249.83681404
scalar OsgEarthNet.uav[18] utilizationEnergyMission 99758.074028015
scalar OsgEarthNet.uav[18] utilizationEnergyMaintenance 77845.928283691
scalar OsgEarthNet.uav[18] utilizationEnergyCharge 175124.01184082
scalar OsgEarthNet.uav[18] utilizationEnergyOverdrawMission 0
scalar OsgEarthNet.uav[18] utilizationEnergyOverdrawMaintenance 0
scalar OsgEarthNet.uav[18] utilizationCountMissions 40
scalar OsgEarthNet.uav[18] utilizationCountManeuversMission 691
scalar OsgEarthNet.uav[18] utilizationCountManeuversMaintenance 80
scalar OsgEarthNet.uav[18] utilizationCountChargeState 40
scalar OsgEarthNet.uav[18] utilizationCountOverdrawnAfterMission 0
scalar OsgEarthNet.uav[18] utilizationCountIdleState 40
scalar OsgEarthNet.uav[18] utilizationFail 0
scalar OsgEarthNet.uav[18] simulationTime 259200
scalar OsgEarthNet.uav[19] utilizationSecMission 360
scalar OsgEarthNet.uav[19] utilizationSecMaintenance 524.03331269068
scalar OsgEarthNet.uav[19] utilizationSecCharge 3400
scalar OsgEarthNet.uav[19] utilizationSecIdle 254915.96568731
scalar OsgEarthNet.uav[19] utilizationEnergyMission 1737.8974342346
scalar OsgEarthNet.uav[19] utilizationEnergyMaintenance 2705.6006584168
scalar OsgEarthNet.uav[19] utilizationEnergyCharge 4486.5356445312
scalar OsgEarthNet.uav[19] utilizationEnergyOverdrawMission 0
scalar OsgEarthNet.uav[19] utilizationEnergyOverdrawMaintenance 0
scalar OsgEarthNet.uav[19] utilizationCountMissions 1
scalar OsgEarthNet.uav[19] utilizationCountManeuversMission 18
scalar OsgEarthNet.uav[19] utilizationCountManeuversMaintenance 2
scalar OsgEarthNet.uav[19] utilizationCountChargeState 1
scalar OsgEarthNet.uav[19] utilizationCountOverdrawnAfterMission 0
scalar OsgEarthNet.uav[19] utilizationCountIdleState 2
scalar OsgEarthNet.uav[19] utilizationFail 0
scalar OsgEarthNet.uav[19] simulationTime 259200
scalar OsgEarthNet.uav[20] utilizationSecMission 500
scalar OsgEarthNet.uav[20] utilizationSecMaintenance 363.8841636065
scalar OsgEarthNet.uav[20] utilizationSecCharge 3360
scalar OsgEarthNet.uav[20] utilizationSecIdle 254976.11483639
scalar OsgEarthNet.uav[20] utilizationEnergyMission 2523.8642692566
scalar OsgEarthNet.uav[20] utilizationEnergyMaintenance 1750.1303215027
scalar OsgEarthNet.uav[20] utilizationEnergyCharge 4437.1298828125
scalar OsgEarthNet.uav[20] utilizationEnergyOverdrawMission 0
scalar OsgEarthNet.uav[20] utilizationEnergyOverdrawMaintenance 0
scalar OsgEarthNet.uav[20] utilizationCountMissions 1
scalar OsgEarthNet.uav[20] utilizationCountManeuversMission 25
scalar OsgEarthNet.uav[20] utilizationCountManeuversMaintenance 2
scalar OsgEarthNet.uav[20] utilizationCountChargeState 1
scalar OsgEarthNet.uav[20] utilizationCountOverdrawnAfterMission 0
scalar OsgEarthNet.uav[20] utilizationCountIdleState 2
scalar OsgEarthNet.uav[20] utilizationFail 0
scalar OsgEarthNet.uav[20] simulationTime 259200
scalar OsgEarthNet.uav[21] utilizationSecMission 2300
scalar OsgEarthNet.uav[21] utilizationSecMaintenance 2223.3834294095
scalar OsgEarthNet.uav[21] utilizationSecCharge 17290
scalar OsgEarthNet.uav[21] utilizationSecIdle 237386.61557059
scalar OsgEarthNet.uav[21] utilizationEnergyMission 11763.048999786
scalar OsgEarthNet.uav[21] utilizationEnergyMaintenance 10200.690242767
scalar OsgEarthNet.uav[21] utilizationEnergyCharge 22590.067382812
scalar OsgEarthNet.uav[21] utilizationEnergyOverdrawMission 0
scalar OsgEarthNet.uav[21] utilizationEnergyOverdrawMaintenance 0
scalar OsgEarthNet.uav[21] utilizationCountMissions 5
scalar OsgEarthNet.uav[21] utilizationCountManeuversMission 115
scalar OsgEarthNet.uav[21] utilizationCountManeuversMaintenance 10
scalar OsgEarthNet.uav[21] utilizationCountChargeState 5
scalar OsgEarthNet.uav[21] utilizationCountOverdrawnAfterMission 0
scalar OsgEarthNet.uav[21] utilizationCountIdleState 6
scalar OsgEarthNet.uav[21] utilizationFail 0
scalar OsgEarthNet.uav[21] simulationTime 259200
scalar OsgEarthNet.uav[22] utilizationSecMission 28923.345607941
scalar OsgEarthNet.uav[22] utilizationSecMaintenance 21284.01383667
scalar OsgEarthNet.uav[22] utilizationSecCharge 180850.63855539
scalar OsgEarthNet.uav[22] utilizationSecIdle 28142.001
scalar OsgEarthNet.uav[22] utilizationEnergyMission 137800.07488251
scalar OsgEarthNet.uav[22] utilizationEnergyMaintenance 99885.562858582
scalar OsgEarthNet.uav[22] utilizationEnergyCharge 238768.70043945
scalar OsgEarthNet.uav[22] utilizationEnergyOverdrawMission 0
scalar OsgEarthNet.uav[22] utilizationEnergyOverdrawMaintenance 0
scalar OsgEarthNet.uav[22] utilizationCountMissions 53
scalar OsgEarthNet.uav[22] utilizationCountManeuversMission 790
scalar OsgEarthNet.uav[22] utilizationCountManeuversMaintenance 106
scalar OsgEarthNet.uav[22] utilizationCountChargeState 53
scalar OsgEarthNet.uav[22] utilizationCountOverdrawnAfterMission 0
scalar OsgEarthNet.uav[22] utilizationCountIdleState 53
scalar OsgEarthNet.uav[22] utilizationFail 0
scalar OsgEarthNet.uav[22] simulationTime 259200
scalar OsgEarthNet.uav[23] utilizationSecMission 25053.42219985
scalar OsgEarthNet.uav[23] utilizationSecMaintenance 26412.428959623
scalar OsgEarthNet.uav[23] utilizationSecCharge 186662.14784053
scalar OsgEarthNet.uav[23] utilizationSecIdle 21072
scalar OsgEarthNet.uav[23] utilizationEnergyMission 122503.66783905
scalar OsgEarthNet.uav[23] utilizationEnergyMaintenance 122605.70588303
scalar OsgEarthNet.uav[23] utilizationEnergyCharge 245371.47314453
scalar OsgEarthNet.uav[23] utilizationEnergyOverdrawMission 0
scalar OsgEarthNet.uav[23] utilizationEnergyOverdrawMaintenance 0
scalar OsgEarthNet.uav[23] utilizationCountMissions 55
scalar OsgEarthNet.uav[23] utilizationCountManeuversMission 853
scalar OsgEarthNet.uav[23] utilizationCountManeuversMaintenance 110
scalar OsgEarthNet.uav[23] utilizationCountChargeState 55
scalar OsgEarthNet.uav[23] utilizationCountOverdrawnAfterMission 0
scalar OsgEarthNet.uav[23] utilizationCountIdleState 55
scalar OsgEarthNet.uav[23] utilizationFail 0
scalar OsgEarthNet.uav[23] simulationTime 259200
scalar OsgEarthNet.uav[24] utilizationSecMission 25534.768265861
scalar OsgEarthNet.uav[24] utilizationSecMaintenance 22429.9146082
scalar OsgEarthNet.uav[24] utilizationSecCharge 171123.31112594
scalar OsgEarthNet.uav[24] utilizationSecIdle 40112.005
scalar OsgEarthNet.uav[24] utilizationEnergyMission 124030.48638916
scalar OsgEarthNet.uav[24] utilizationEnergyMaintenance 104033.98605728
scalar OsgEarthNet.uav[24] utilizationEnergyCharge 224826.14624023
scalar OsgEarthNet.uav[24] utilizationEnergyOverdrawMission 0
scalar OsgEarthNet.uav[24] utilizationEnergyOverdrawMaintenance 0
scalar OsgEarthNet.uav[24] utilizationCountMissions 51
scalar OsgEarthNet.uav[24] utilizationCountManeuversMission 767
scalar OsgEarthNet.uav[24] utilizationCountManeuversMaintenance 102
scalar OsgEarthNet.uav[24] utilizationCountChargeState 51
scalar OsgEarthNet.uav[24] utilizationCountOverdrawnAfterMission 0
scalar OsgEarthNet.uav[24] utilizationCountIdleState 51
scalar OsgEarthNet.uav[24] utilizationFail 0
scalar OsgEarthNet.uav[24] simulationTime 259200
scalar OsgEarthNet.uav[25] utilizationSecMission 22552.135360961
scalar OsgEarthNet.uav[25] utilizationSecMaintenance 20652.268326184
scalar OsgEarthNet.uav[25] utilizationSecCharge 155197.02173056
scalar OsgEarthNet.uav[25] utilizationSecIdle 60798.573582292
scalar OsgEarthNet.uav[25] utilizationEnergyMission 107484.29367828
scalar OsgEarthNet.uav[25] utilizationEnergyMaintenance 97047.604511261
scalar OsgEarthNet.uav[25] utilizationEnergyCharge 204248.73486328
scalar OsgEarthNet.uav[25] utilizationEnergyOverdrawMission 0
scalar OsgEarthNet.uav[25] utilizationEnergyOverdrawMaintenance 0
scalar OsgEarthNet.uav[25] utilizationCountMissions 46
scalar OsgEarthNet.uav[25] utilizationCountManeuversMission 662
scalar OsgEarthNet.uav[25] utilizationCountManeuversMaintenance 92
scalar OsgEarthNet.uav[25] utilizationCountChargeState 46
scalar OsgEarthNet.uav[25] utilizationCountOverdrawnAfterMission 0
scalar OsgEarthNet.uav[25] utilizationCountIdleState 46
scalar OsgEarthNet.uav[25] utilizationFail 0
scalar OsgEarthNet.uav[25] simulationTime 259200
scalar OsgEarthNet.uav[26] utilizationSecMission 4002.7757578676
scalar OsgEarthNet.uav[26] utilizationSecMaintenance 3597.8511450708
scalar OsgEarthNet.uav[26] utilizationSecCharge 27650
scalar OsgEarthNet.uav[26] utilizationSecIdle 223949.37209706
scalar OsgEarthNet.uav[26] utilizationEnergyMission 19853.408699036
scalar OsgEarthNet.uav[26] utilizationEnergyMaintenance 16855.768230438
scalar OsgEarthNet.uav[26] utilizationEnergyCharge 36263.318847656
scalar OsgEarthNet.uav[26] utilizationEnergyOverdrawMission 0
scalar OsgEarthNet.uav[26] utilizationEnergyOverdrawMaintenance 0
scalar OsgEarthNet.uav[26] utilizationCountMissions 8
scalar OsgEarthNet.uav[26] utilizationCountManeuversMission 128
scalar OsgEarthNet.uav[26] utilizationCountManeuversMaintenance 16
scalar OsgEarthNet.uav[26] utilizationCountChargeState 8
scalar OsgEarthNet.uav[26] utilizationCountOverdrawnAfterMission 0
scalar OsgEarthNet.uav[26] utilizationCountIdleState 9
scalar OsgEarthNet.uav[26] utilizationFail 0
scalar OsgEarthNet.uav[26] simulationTime 259200
scalar OsgEarthNet.uav[27] utilizationSecMission 11996.54909357
scalar OsgEarthNet.uav[27] utilizationSecMaintenance 9614.9756342062
scalar OsgEarthNet.uav[27] utilizationSecCharge 78250
scalar OsgEarthNet.uav[27] utilizationSecIdle 159338.47427222
scalar OsgEarthNet.uav[27] utilizationEnergyMission 57313.830028534
scalar OsgEarthNet.uav[27] utilizationEnergyMaintenance 44943.969684601
scalar OsgEarthNet.uav[27] utilizationEnergyCharge 102420.82885742
scalar OsgEarthNet.uav[27] utilizationEnergyOverdrawMission 0
scalar OsgEarthNet.uav[27] utilizationEnergyOverdrawMaintenance 0
scalar OsgEarthNet.uav[27] utilizationCountMissions 23
scalar OsgEarthNet.uav[27] utilizationCountManeuversMission 361
scalar OsgEarthNet.uav[27] utilizationCountManeuversMaintenance 46
scalar OsgEarthNet.uav[27] utilizationCountChargeState 23
scalar OsgEarthNet.uav[27] utilizationCountOverdrawnAfterMission 0
scalar OsgEarthNet.uav[27] utilizationCountIdleState 24
scalar OsgEarthNet.uav[27] utilizationFail 0
scalar OsgEarthNet.uav[27] simulationTime 259200
scalar OsgEarthNet.uav[28] utilizationSecMission 15498.313969538
scalar OsgEarthNet.uav[28] utilizationSecMaintenance 15859.680030462
scalar OsgEarthNet.uav[28] utilizationSecCharge 114930
scalar OsgEarthNet.uav[28] utilizationSecIdle 112912.005
scalar OsgEarthNet.uav[28] utilizationEnergyMission 75195.038848877
scalar OsgEarthNet.uav[28] utilizationEnergyMaintenance 73209.382293502
scalar OsgEarthNet.uav[28] utilizationEnergyCharge 149791.92651367
scalar OsgEarthNet.uav[28] utilizationEnergyOverdrawMission 0
scalar OsgEarthNet.uav[28] utilizationEnergyOverdrawMaintenance 0
scalar OsgEarthNet.uav[28] utilizationCountMissions 34
scalar OsgEarthNet.uav[28] utilizationCountManeuversMission 550
scalar OsgEarthNet.uav[28] utilizationCountManeuversMaintenance 69
scalar OsgEarthNet.uav[28] utilizationCountChargeState 34
scalar OsgEarthNet.uav[28] utilizationCountOverdrawnAfterMission 0
scalar OsgEarthNet.uav[28] utilizationCountIdleState 35
scalar OsgEarthNet.uav[28] utilizationFail 0
scalar OsgEarthNet.uav[28] simulationTime 259200
scalar OsgEarthNet.uav[29] utilizationSecMission 12986.554039713
scalar OsgEarthNet.uav[29] utilizationSecMaintenance 10743.662310126
scalar OsgEarthNet.uav[29] utilizationSecCharge 87470
scalar OsgEarthNet.uav[29] utilizationSecIdle 147999.78265016
scalar OsgEarthNet.uav[29] utilizationEnergyMission 63486.086353302
scalar OsgEarthNet.uav[29] utilizationEnergyMaintenance 50520.216609955
scalar OsgEarthNet.uav[29] utilizationEnergyCharge 114072.4309082
scalar OsgEarthNet.uav[29] utilizationEnergyOverdrawMission 0
scalar OsgEarthNet.uav[29] utilizationEnergyOverdrawMaintenance 0
scalar OsgEarthNet.uav[29] utilizationCountMissions 26
scalar OsgEarthNet.uav[29] utilizationCountManeuversMission 455
scalar OsgEarthNet.uav[29] utilizationCountManeuversMaintenance 52
scalar OsgEarthNet.uav[29] utilizationCountChargeState 26
scalar OsgEarthNet.uav[29] utilizationCountOverdrawnAfterMission 0
scalar OsgEarthNet.uav[29] utilizationCountIdleState 27
scalar OsgEarthNet.uav[29] utilizationFail 0
scalar OsgEarthNet.uav[29] simulationTime 259200
scalar OsgEarthNet.uav[30] utilizationSecMission 25449.604438385
scalar OsgEarthNet.uav[30] utilizationSecMaintenance 24599.382814249
scalar OsgEarthNet.uav[30] utilizationSecCharge 181739.01074737
scalar OsgEarthNet.uav[30] utilizationSecIdle 27412.001
scalar OsgEarthNet.uav[30] utilizationEnergyMission 124525.26412964
scalar OsgEarthNet.uav[30] utilizationEnergyMaintenance 113138.18973541
scalar OsgEarthNet.uav[30] utilizationEnergyCharge 236592.79077148
scalar OsgEarthNet.uav[30] utilizationEnergyOverdrawMission 0
scalar OsgEarthNet.uav[30] utilizationEnergyOverdrawMaintenance 0
scalar OsgEarthNet.uav[30] utilizationCountMissions 55
scalar OsgEarthNet.uav[30] utilizationCountManeuversMission 840
scalar OsgEarthNet.uav[30] utilizationCountManeuversMaintenance 110
scalar OsgEarthNet.uav[30] utilizationCountChargeState 55
scalar OsgEarthNet.uav[30] utilizationCountOverdrawnAfterMission 0
scalar OsgEarthNet.uav[30] utilizationCountIdleState 55
scalar OsgEarthNet.uav[30] utilizationFail 0
scalar OsgEarthNet.uav[30] simulationTime 259200
scalar OsgEarthNet.uav[31] utilizationSecMission 23402.418737274
scalar OsgEarthNet.uav[31] utilizationSecMaintenance 22066.527976944
scalar OsgEarthNet.uav[31] utilizationSecCharge 162489.04428578
scalar OsgEarthNet.uav[31] utilizationSecIdle 51242.008
scalar OsgEarthNet.uav[31] utilizationEnergyMission 113420.32580948
scalar OsgEarthNet.uav[31] utilizationEnergyMaintenance 102937.46231842
scalar OsgEarthNet.uav[31] utilizationEnergyCharge 212596.78930664
scalar OsgEarthNet.uav[31] utilizationEnergyOverdrawMission 0
scalar OsgEarthNet.uav[31] utilizationEnergyOverdrawMaintenance 0
scalar OsgEarthNet.uav[31] utilizationCountMissions 49
scalar OsgEarthNet.uav[31] utilizationCountManeuversMission 721
scalar OsgEarthNet.uav[31] utilizationCountManeuversMaintenance 98
scalar OsgEarthNet.uav[31] utilizationCountChargeState 49
scalar OsgEarthNet.uav[31] utilizationCountOverdrawnAfterMission 0
scalar OsgEarthNet.uav[31] utilizationCountIdleState 49
scalar OsgEarthNet.uav[31] utilizationFail 0
scalar OsgEarthNet.uav[31] simulationTime 259200
scalar OsgEarthNet.uav[32] utilizationSecMission 23820.647424125
scalar OsgEarthNet.uav[32] utilizationSecMaintenance 22494.480550053
scalar OsgEarthNet.uav[32] utilizationSecCharge 166883.47254144
scalar OsgEarthNet.uav[32] utilizationSecIdle 46001.398484386
scalar OsgEarthNet.uav[32] utilizationEnergyMission 117879.00115585
scalar OsgEarthNet.uav[32] utilizationEnergyMaintenance 104607.83491516
scalar OsgEarthNet.uav[32] utilizationEnergyCharge 218208.52410889
scalar OsgEarthNet.uav[32] utilizationEnergyOverdrawMission 0
scalar OsgEarthNet.uav[32] utilizationEnergyOverdrawMaintenance 0
scalar OsgEarthNet.uav[32] utilizationCountMissions 50
scalar OsgEarthNet.uav[32] utilizationCountManeuversMission 812
scalar OsgEarthNet.uav[32] utilizationCountManeuversMaintenance 100
scalar OsgEarthNet.uav[32] utilizationCountChargeState 50
scalar OsgEarthNet.uav[32] utilizationCountOverdrawnAfterMission 0
scalar OsgEarthNet.uav[32] utilizationCountIdleState 50
scalar OsgEarthNet.uav[32] utilizationFail 0
scalar OsgEarthNet.uav[32] simulationTime 259200
scalar OsgEarthNet.uav[33] utilizationSecMission 545.05972348896
scalar OsgEarthNet.uav[33] utilizationSecMaintenance 427.36308650536
scalar OsgEarthNet.uav[33] utilizationSecCharge 3440
scalar OsgEarthNet.uav[33] utilizationSecIdle 254787.57619001
scalar OsgEarthNet.uav[33] utilizationEnergyMission 2472.4006958008
scalar OsgEarthNet.uav[33] utilizationEnergyMaintenance 1956.1809005737
scalar OsgEarthNet.uav[33] utilizationEnergyCharge 4500.7895507812
scalar OsgEarthNet.uav[33] utilizationEnergyOverdrawMission 0
scalar OsgEarthNet.uav[33] utilizationEnergyOverdrawMaintenance 0
scalar OsgEarthNet.uav[33] utilizationCountMissions 1
scalar OsgEarthNet.uav[33] utilizationCountManeuversMission 9
scalar OsgEarthNet.uav[33] utilizationCountManeuversMaintenance 2
scalar OsgEarthNet.uav[33] utilizationCountChargeState 1
scalar OsgEarthNet.uav[33] utilizationCountOverdrawnAfterMission 0
scalar OsgEarthNet.uav[33] utilizationCountIdleState 2
scalar OsgEarthNet.uav[33] utilizationFail 0
scalar OsgEarthNet.uav[33] simulationTime 259200
scalar OsgEarthNet.uav[34] utilizationSecMission 25933.288286672
scalar OsgEarthNet.uav[34] utilizationSecMaintenance 22121.796778841
scalar OsgEarthNet.uav[34] utilizationSecCharge 168632.90793449
scalar OsgEarthNet.uav[34] utilizationSecIdle 42512.006
scalar OsgEarthNet.uav[34] utilizationEnergyMission 123854.77929687
scalar OsgEarthNet.uav[34] utilizationEnergyMaintenance 102597.69594193
scalar OsgEarthNet.uav[34] utilizationEnergyCharge 221302.01226807
scalar OsgEarthNet.uav[34] utilizationEnergyOverdrawMission 0
scalar OsgEarthNet.uav[34] utilizationEnergyOverdrawMaintenance 101.73084259033
scalar OsgEarthNet.uav[34] utilizationCountMissions 50
scalar OsgEarthNet.uav[34] utilizationCountManeuversMission 780
scalar OsgEarthNet.uav[34] utilizationCountManeuversMaintenance 100
scalar OsgEarthNet.uav[34] utilizationCountChargeState 50
scalar OsgEarthNet.uav[34] utilizationCountOverdrawnAfterMission 1
scalar OsgEarthNet.uav[34] utilizationCountIdleState 50
scalar OsgEarthNet.uav[34] utilizationFail 0
scalar OsgEarthNet.uav[34] simulationTime 259200
scalar OsgEarthNet.uav[35] utilizationSecMission 26534.523892277
scalar OsgEarthNet.uav[35] utilizationSecMaintenance 20280.915461444
scalar OsgEarthNet.uav[35] utilizationSecCharge 169393.10668756
scalar OsgEarthNet.uav[35] utilizationSecIdle 42991.452958717
scalar OsgEarthNet.uav[35] utilizationEnergyMission 127470.3315239
scalar OsgEarthNet.uav[35] utilizationEnergyMaintenance 94837.874488831
scalar OsgEarthNet.uav[35] utilizationEnergyCharge 222262.55371094
scalar OsgEarthNet.uav[35] utilizationEnergyOverdrawMission 0
scalar OsgEarthNet.uav[35] utilizationEnergyOverdrawMaintenance 0
scalar OsgEarthNet.uav[35] utilizationCountMissions 50
scalar OsgEarthNet.uav[35] utilizationCountManeuversMission 784
scalar OsgEarthNet.uav[35] utilizationCountManeuversMaintenance 100
scalar OsgEarthNet.uav[35] utilizationCountChargeState 50
scalar OsgEarthNet.uav[35] utilizationCountOverdrawnAfterMission 0
scalar OsgEarthNet.uav[35] utilizationCountIdleState 50
scalar OsgEarthNet.uav[35] utilizationFail 0
scalar OsgEarthNet.uav[35] simulationTime 259200
scalar OsgEarthNet.uav[36] utilizationSecMission 26379.305636566
scalar OsgEarthNet.uav[36] utilizationSecMaintenance 21736.109961899
scalar OsgEarthNet.uav[36] utilizationSecCharge 170990.56512321
scalar OsgEarthNet.uav[36] utilizationSecIdle 40094.018278323
scalar OsgEarthNet.uav[36] utilizationEnergyMission 127372.95121002
scalar OsgEarthNet.uav[36] utilizationEnergyMaintenance 101218.63061905
scalar OsgEarthNet.uav[36] utilizationEnergyCharge 224383.88049316
scalar OsgEarthNet.uav[36] utilizationEnergyOverdrawMission 0
scalar OsgEarthNet.uav[36] utilizationEnergyOverdrawMaintenance 0
scalar OsgEarthNet.uav[36] utilizationCountMissions 51
scalar OsgEarthNet.uav[36] utilizationCountManeuversMission 751
scalar OsgEarthNet.uav[36] utilizationCountManeuversMaintenance 102
scalar OsgEarthNet.uav[36] utilizationCountChargeState 51
scalar OsgEarthNet.uav[36] utilizationCountOverdrawnAfterMission 0
scalar OsgEarthNet.uav[36] utilizationCountIdleState 51
scalar OsgEarthNet.uav[36] utilizationFail 0
scalar OsgEarthNet.uav[36] simulationTime 259200
scalar OsgEarthNet.uav[37] utilizationSecMission 27131.5897935
scalar OsgEarthNet.uav[37] utilizationSecMaintenance 23911.728398612
scalar OsgEarthNet.uav[37] utilizationSecCharge 182010
scalar OsgEarthNet.uav[37] utilizationSecIdle 26146.680807888
scalar OsgEarthNet.uav[37] utilizationEnergyMission 132130.29504776
scalar OsgEarthNet.uav[37] utilizationEnergyMaintenance 112336.87550551
scalar OsgEarthNet.uav[37] utilizationEnergyCharge 239259.13964844
scalar OsgEarthNet.uav[37] utilizationEnergyOverdrawMission 0
scalar OsgEarthNet.uav[37] utilizationEnergyOverdrawMaintenance 0
scalar OsgEarthNet.uav[37] utilizationCountMissions 54
scalar OsgEarthNet.uav[37] utilizationCountManeuversMission 863
scalar OsgEarthNet.uav[37] utilizationCountManeuversMaintenance 108
scalar OsgEarthNet.uav[37] utilizationCountChargeState 53
scalar OsgEarthNet.uav[37] utilizationCountOverdrawnAfterMission 0
scalar OsgEarthNet.uav[37] utilizationCountIdleState 54
scalar OsgEarthNet.uav[37] utilizationFail 0
scalar OsgEarthNet.uav[37] simulationTime 259200
scalar OsgEarthNet.uav[38] utilizationSecMission 27659.317822286
scalar OsgEarthNet.uav[38] utilizationSecMaintenance 22612.733333694
scalar OsgEarthNet.uav[38] utilizationSecCharge 179675.94584402
scalar OsgEarthNet.uav[38] utilizationSecIdle 29252.002
scalar OsgEarthNet.uav[38] utilizationEnergyMission 132988.0537796
scalar OsgEarthNet.uav[38] utilizationEnergyMaintenance 104669.74188995
scalar OsgEarthNet.uav[38] utilizationEnergyCharge 236451.92895508
scalar OsgEarthNet.uav[38] utilizationEnergyOverdrawMission 0
scalar OsgEarthNet.uav[38] utilizationEnergyOverdrawMaintenance 0
scalar OsgEarthNet.uav[38] utilizationCountMissions 53
scalar OsgEarthNet.uav[38] utilizationCountManeuversMission 730
scalar OsgEarthNet.uav[38] utilizationCountManeuversMaintenance 106
scalar OsgEarthNet.uav[38] utilizationCountChargeState 53
scalar OsgEarthNet.uav[38] utilizationCountOverdrawnAfterMission 0
scalar OsgEarthNet.uav[38] utilizationCountIdleState 53
scalar OsgEarthNet.uav[38] utilizationFail 0
scalar OsgEarthNet.uav[38] simulationTime 259200
scalar OsgEarthNet.uav[39] utilizationSecMission 1180
scalar OsgEarthNet.uav[39] utilizationSecMaintenance 626.83730222542
scalar OsgEarthNet.uav[39] utilizationSecCharge 6890
scalar OsgEarthNet.uav[39] utilizationSecIdle 250503.16169777
scalar OsgEarthNet.uav[39] utilizationEnergyMission 5826.4145317078
scalar OsgEarthNet.uav[39] utilizationEnergyMaintenance 2830.1150131226
scalar OsgEarthNet.uav[39] utilizationEnergyCharge 9057.1118164062
scalar OsgEarthNet.uav[39] utilizationEnergyOverdrawMission 0
scalar OsgEarthNet.uav[39] utilizationEnergyOverdrawMaintenance 0
scalar OsgEarthNet.uav[39] utilizationCountMissions 2
scalar OsgEarthNet.uav[39] utilizationCountManeuversMission 59
scalar OsgEarthNet.uav[39] utilizationCountManeuversMaintenance 4
scalar OsgEarthNet.uav[39] utilizationCountChargeState 2
scalar OsgEarthNet.uav[39] utilizationCountOverdrawnAfterMission 0
scalar OsgEarthNet.uav[39] utilizationCountIdleState 3
scalar OsgEarthNet.uav[39] utilizationFail 0
scalar OsgEarthNet.uav[39] simulationTime 259200
scalar OsgEarthNet.uav[40] utilizationSecMission 653.66140879233
scalar OsgEarthNet.uav[40] utilizationSecMaintenance 1031.4308728057
scalar OsgEarthNet.uav[40] utilizationSecCharge 6090
scalar OsgEarthNet.uav[40] utilizationSecIdle 251424.9067184
scalar OsgEarthNet.uav[40] utilizationEnergyMission 3149.9182357788
scalar OsgEarthNet.uav[40] utilizationEnergyMaintenance 4763.8427467346
scalar OsgEarthNet.uav[40] utilizationEnergyCharge 7674.8208007812
scalar OsgEarthNet.uav[40] utilizationEnergyOverdrawMission 0
scalar OsgEarthNet.uav[40] utilizationEnergyOverdrawMaintenance 0
scalar OsgEarthNet.uav[40] utilizationCountMissions 2
scalar OsgEarthNet.uav[40] utilizationCountManeuversMission 22
scalar OsgEarthNet.uav[40] utilizationCountManeuversMaintenance 4
scalar OsgEarthNet.uav[40] utilizationCountChargeState 2
scalar OsgEarthNet.uav[40] utilizationCountOverdrawnAfterMission 0
scalar OsgEarthNet.uav[40] utilizationCountIdleState 3
scalar OsgEarthNet.uav[40] utilizationFail 0
scalar OsgEarthNet.uav[40] simulationTime 259200
scalar OsgEarthNet.uav[41] utilizationSecMission 20103.507686563
scalar OsgEarthNet.uav[41] utilizationSecMaintenance 15854.480313437
scalar OsgEarthNet.uav[41] utilizationSecCharge 128880
scalar OsgEarthNet.uav[41] utilizationSecIdle 94362.011
scalar OsgEarthNet.uav[41] utilizationEnergyMission 99073.881801784
scalar OsgEarthNet.uav[41] utilizationEnergyMaintenance 74238.113285065
scalar OsgEarthNet.uav[41] utilizationEnergyCharge 169097.16601562
scalar OsgEarthNet.uav[41] utilizationEnergyOverdrawMission 0
scalar OsgEarthNet.uav[41] utilizationEnergyOverdrawMaintenance 0
scalar OsgEarthNet.uav[41] utilizationCountMissions 38
scalar OsgEarthNet.uav[41] utilizationCountManeuversMission 597
scalar OsgEarthNet.uav[41] utilizationCountManeuversMaintenance 77
scalar OsgEarthNet.uav[41] utilizationCountChargeState 38
scalar OsgEarthNet.uav[41] utilizationCountOverdrawnAfterMission 0
scalar OsgEarthNet.uav[41] utilizationCountIdleState 38
scalar OsgEarthNet.uav[41] utilizationFail 0
scalar OsgEarthNet.uav[41] simulationTime 259200
scalar OsgEarthNet.uav[42] utilizationSecMission 27701.83225403
scalar OsgEarthNet.uav[42] utilizationSecMaintenance 24175.053520507
scalar OsgEarthNet.uav[42] utilizationSecCharge 185851.11322546
scalar OsgEarthNet.uav[42] utilizationSecIdle 21472
scalar OsgEarthNet.uav[42] utilizationEnergyMission 135929.83998108
scalar OsgEarthNet.uav[42] utilizationEnergyMaintenance 112495.12908173
scalar OsgEarthNet.uav[42] utilizationEnergyCharge 242970.62512207
scalar OsgEarthNet.uav[42] utilizationEnergyOverdrawMission 0
scalar OsgEarthNet.uav[42] utilizationEnergyOverdrawMaintenance 0
scalar OsgEarthNet.uav[42] utilizationCountMissions 56
scalar OsgEarthNet.uav[42] utilizationCountManeuversMission 918
scalar OsgEarthNet.uav[42] utilizationCountManeuversMaintenance 112
scalar OsgEarthNet.uav[42] utilizationCountChargeState 56
scalar OsgEarthNet.uav[42] utilizationCountOverdrawnAfterMission 0
scalar OsgEarthNet.uav[42] utilizationCountIdleState 56
scalar OsgEarthNet.uav[42] utilizationFail 0
scalar OsgEarthNet.uav[42] simulationTime 259200
scalar OsgEarthNet.uav[43] utilizationSecMission 27097.259520727
scalar OsgEarthNet.uav[43] utilizationSecMaintenance 20487.290042231
scalar OsgEarthNet.uav[43] utilizationSecCharge 171353.44243704
scalar OsgEarthNet.uav[43] utilizationSecIdle 40262.007
scalar OsgEarthNet.uav[43] utilizationEnergyMission 133133.15818787
scalar OsgEarthNet.uav[43] utilizationEnergyMaintenance 94970.641147613
scalar OsgEarthNet.uav[43] utilizationEnergyCharge 225011.11035156
scalar OsgEarthNet.uav[43] utilizationEnergyOverdrawMission 0
scalar OsgEarthNet.uav[43] utilizationEnergyOverdrawMaintenance 0
scalar OsgEarthNet.uav[43] utilizationCountMissions 51
scalar OsgEarthNet.uav[43] utilizationCountManeuversMission 906
scalar OsgEarthNet.uav[43] utilizationCountManeuversMaintenance 102
scalar OsgEarthNet.uav[43] utilizationCountChargeState 51
scalar OsgEarthNet.uav[43] utilizationCountOverdrawnAfterMission 0
scalar OsgEarthNet.uav[43] utilizationCountIdleState 51
scalar OsgEarthNet.uav[43] utilizationFail 0
scalar OsgEarthNet.uav[43] simulationTime 259200
scalar OsgEarthNet.uav[44] utilizationSecMission 25082.722764286
scalar OsgEarthNet.uav[44] utilizationSecMaintenance 23582.738773219
scalar OsgEarthNet.uav[44] utilizationSecCharge 175352.53346249
scalar OsgEarthNet.uav[44] utilizationSecIdle 35182.004
scalar OsgEarthNet.uav[44] utilizationEnergyMission 121918.29216766
scalar OsgEarthNet.uav[44] utilizationEnergyMaintenance 109642.36717987
scalar OsgEarthNet.uav[44] utilizationEnergyCharge 231126.95092773
scalar OsgEarthNet.uav[44] utilizationEnergyOverdrawMission 0
scalar OsgEarthNet.uav[44] utilizationEnergyOverdrawMaintenance 0
scalar OsgEarthNet.uav[44] utilizationCountMissions 52
scalar OsgEarthNet.uav[44] utilizationCountManeuversMission 810
scalar OsgEarthNet.uav[44] utilizationCountManeuversMaintenance 104
scalar OsgEarthNet.uav[44] utilizationCountChargeState 52
scalar OsgEarthNet.uav[44] utilizationCountOverdrawnAfterMission 0
scalar OsgEarthNet.uav[44] utilizationCountIdleState 51
scalar OsgEarthNet.uav[44] utilizationFail 0
scalar OsgEarthNet.uav[44] simulationTime 259200
scalar OsgEarthNet.uav[45] utilizationSecMission 24220.571327239
scalar OsgEarthNet.uav[45] utilizationSecMaintenance 21496.59654791
scalar OsgEarthNet.uav[45] utilizationSecCharge 163426.12576245
scalar OsgEarthNet.uav[45] utilizationSecIdle 50056.705362404
scalar OsgEarthNet.uav[45] utilizationEnergyMission 117044.75705719
scalar OsgEarthNet.uav[45] utilizationEnergyMaintenance 99323.518901825
scalar OsgEarthNet.uav[45] utilizationEnergyCharge 215546.12426758
scalar OsgEarthNet.uav[45] utilizationEnergyOverdrawMission 0
scalar OsgEarthNet.uav[45] utilizationEnergyOverdrawMaintenance 22.158201217651
scalar OsgEarthNet.uav[45] utilizationCountMissions 48
scalar OsgEarthNet.uav[45] utilizationCountManeuversMission 658
scalar OsgEarthNet.uav[45] utilizationCountManeuversMaintenance 96
scalar OsgEarthNet.uav[45] utilizationCountChargeState 48
scalar OsgEarthNet.uav[45] utilizationCountOverdrawnAfterMission 1
scalar OsgEarthNet.uav[45] utilizationCountIdleState 48
scalar OsgEarthNet.uav[45] utilizationFail 0
scalar OsgEarthNet.uav[45] simulationTime 259200
scalar OsgEarthNet.uav[46] utilizationSecMission 25618.306414523
scalar OsgEarthNet.uav[46] utilizationSecMaintenance 20538.77195229
scalar OsgEarthNet.uav[46] utilizationSecCharge 164620.91063319
scalar OsgEarthNet.uav[46] utilizationSecIdle 48422.01
scalar OsgEarthNet.uav[46] utilizationEnergyMission 123270.96271515
scalar OsgEarthNet.uav[46] utilizationEnergyMaintenance 96466.355316162
scalar OsgEarthNet.uav[46] utilizationEnergyCharge 216508.47485352
scalar OsgEarthNet.uav[46] utilizationEnergyOverdrawMission 0
scalar OsgEarthNet.uav[46] utilizationEnergyOverdrawMaintenance 0
scalar OsgEarthNet.uav[46] utilizationCountMissions 49
scalar OsgEarthNet.uav[46] utilizationCountManeuversMission 724
scalar OsgEarthNet.uav[46] utilizationCountManeuversMaintenance 98
scalar OsgEarthNet.uav[46] utilizationCountChargeState 49
scalar OsgEarthNet.uav[46] utilizationCountOverdrawnAfterMission 0
scalar OsgEarthNet.uav[46] utilizationCountIdleState 48
scalar OsgEarthNet.uav[46] utilizationFail 0
scalar OsgEarthNet.uav[46] simulationTime 259200
scalar OsgEarthNet.uav[47] utilizationSecMission 28360.025523082
scalar OsgEarthNet.uav[47] utilizationSecMaintenance 20012.770203975
scalar OsgEarthNet.uav[47] utilizationSecCharge 172939.88818673
scalar OsgEarthNet.uav[47] utilizationSecIdle 37887.315086215
scalar OsgEarthNet.uav[47] utilizationEnergyMission 136742.79835129
scalar OsgEarthNet.uav[47] utilizationEnergyMaintenance 92649.417366028
scalar OsgEarthNet.uav[47] utilizationEnergyCharge 228115.14770508
scalar OsgEarthNet.uav[47] utilizationEnergyOverdrawMission 0
scalar OsgEarthNet.uav[47] utilizationEnergyOverdrawMaintenance 0
scalar OsgEarthNet.uav[47] utilizationCountMissions 51
scalar OsgEarthNet.uav[47] utilizationCountManeuversMission 903
scalar OsgEarthNet.uav[47] utilizationCountManeuversMaintenance 102
scalar OsgEarthNet.uav[47] utilizationCountChargeState 51
scalar OsgEarthNet.uav[47] utilizationCountOverdrawnAfterMission 0
scalar OsgEarthNet.uav[47] utilizationCountIdleState 51
scalar OsgEarthNet.uav[47] utilizationFail 0
scalar OsgEarthNet.uav[47] simulationTime 259200
scalar OsgEarthNet.uav[48] utilizationSecMission 21707.075066025
scalar OsgEarthNet.uav[48] utilizationSecMaintenance 20775.825141996
scalar OsgEarthNet.uav[48] utilizationSecCharge 150835.09879198
scalar OsgEarthNet.uav[48] utilizationSecIdle 65882
scalar OsgEarthNet.uav[48] utilizationEnergyMission 104271.80966399
scalar OsgEarthNet.uav[48] utilizationEnergyMaintenance 95894.064434051
scalar OsgEarthNet.uav[48] utilizationEnergyCharge 198097.74047852
scalar OsgEarthNet.uav[48] utilizationEnergyOverdrawMission 0
scalar OsgEarthNet.uav[48] utilizationEnergyOverdrawMaintenance 0
scalar OsgEarthNet.uav[48] utilizationCountMissions 45
scalar OsgEarthNet.uav[48] utilizationCountManeuversMission 614
scalar OsgEarthNet.uav[48] utilizationCountManeuversMaintenance 89
scalar OsgEarthNet.uav[48] utilizationCountChargeState 45
scalar OsgEarthNet.uav[48] utilizationCountOverdrawnAfterMission 0
scalar OsgEarthNet.uav[48] utilizationCountIdleState 44
scalar OsgEarthNet.uav[48] utilizationFail 0
scalar OsgEarthNet.uav[48] simulationTime 259200
scalar OsgEarthNet.uav[49] utilizationSecMission 18920.064952519
scalar OsgEarthNet.uav[49] utilizationSecMaintenance 22935.351315336
scalar OsgEarthNet.uav[49] utilizationSecCharge 153420
scalar OsgEarthNet.uav[49] utilizationSecIdle 63924.582732145
scalar OsgEarthNet.uav[49] utilizationEnergyMission 91989.069511414
scalar OsgEarthNet.uav[49] utilizationEnergyMaintenance 108405.02173233
scalar OsgEarthNet.uav[49] utilizationEnergyCharge 200944.60888672
scalar OsgEarthNet.uav[49] utilizationEnergyOverdrawMission 0
scalar OsgEarthNet.uav[49] utilizationEnergyOverdrawMaintenance 348.10096740723
scalar OsgEarthNet.uav[49] utilizationCountMissions 45
scalar OsgEarthNet.uav[49] utilizationCountManeuversMission 630
scalar OsgEarthNet.uav[49] utilizationCountManeuversMaintenance 90
scalar OsgEarthNet.uav[49] utilizationCountChargeState 45
scalar OsgEarthNet.uav[49] utilizationCountOverdrawnAfterMission 2
scalar OsgEarthNet.uav[49] utilizationCountIdleState 46
scalar OsgEarthNet.uav[49] utilizationFail 0
scalar OsgEarthNet.uav[49] simulationTime 259200
scalar OsgEarthNet.uav[50] utilizationSecMission 28962.797116911
scalar OsgEarthNet.uav[50] utilizationSecMaintenance 20615.06206135
scalar OsgEarthNet.uav[50] utilizationSecCharge 179370
scalar OsgEarthNet.uav[50] utilizationSecIdle 30252.139821739
scalar OsgEarthNet.uav[50] utilizationEnergyMission 140506.55198077
scalar OsgEarthNet.uav[50] utilizationEnergyMaintenance 95812.345252991
scalar OsgEarthNet.uav[50] utilizationEnergyCharge 234406.96313477
scalar OsgEarthNet.uav[50] utilizationEnergyOverdrawMission 0
scalar OsgEarthNet.uav[50] utilizationEnergyOverdrawMaintenance 0
scalar OsgEarthNet.uav[50] utilizationCountMissions 53
scalar OsgEarthNet.uav[50] utilizationCountManeuversMission 905
scalar OsgEarthNet.uav[50] utilizationCountManeuversMaintenance 107
scalar OsgEarthNet.uav[50] utilizationCountChargeState 53
scalar OsgEarthNet.uav[50] utilizationCountOverdrawnAfterMission 0
scalar OsgEarthNet.uav[50] utilizationCountIdleState 54
scalar OsgEarthNet.uav[50] utilizationFail 0
scalar OsgEarthNet.uav[50] simulationTime 259200
scalar OsgEarthNet.uav[51] utilizationSecMission 23166.963762427
scalar OsgEarthNet.uav[51] utilizationSecMaintenance 20090.492412703
scalar OsgEarthNet.uav[51] utilizationSecCharge 156030
scalar OsgEarthNet.uav[51] utilizationSecIdle 59912.542824869
scalar OsgEarthNet.uav[51] utilizationEnergyMission 112278.19820425
scalar OsgEarthNet.uav[51] utilizationEnergyMaintenance 94003.598358154
scalar OsgEarthNet.uav[51] utilizationEnergyCharge 203860.62475586
scalar OsgEarthNet.uav[51] utilizationEnergyOverdrawMission 0
scalar OsgEarthNet.uav[51] utilizationEnergyOverdrawMaintenance 0
scalar OsgEarthNet.uav[51] utilizationCountMissions 46
scalar OsgEarthNet.uav[51] utilizationCountManeuversMission 723
scalar OsgEarthNet.uav[51] utilizationCountManeuversMaintenance 93
scalar OsgEarthNet.uav[51] utilizationCountChargeState 46
scalar OsgEarthNet.uav[51] utilizationCountOverdrawnAfterMission 0
scalar OsgEarthNet.uav[51] utilizationCountIdleState 47
scalar OsgEarthNet.uav[51] utilizationFail 0
scalar OsgEarthNet.uav[51] simulationTime 259200
scalar OsgEarthNet.uav[52] utilizationSecMission 20451.670401267
scalar OsgEarthNet.uav[52] utilizationSecMaintenance 15770.593971346
scalar OsgEarthNet.uav[52] utilizationSecCharge 129950
scalar OsgEarthNet.uav[52] utilizationSecIdle 93027.734627387
scalar OsgEarthNet.uav[52] utilizationEnergyMission 97958.622787476
scalar OsgEarthNet.uav[52] utilizationEnergyMaintenance 72660.046775818
scalar OsgEarthNet.uav[52] utilizationEnergyCharge 170475.40185547
scalar OsgEarthNet.uav[52] utilizationEnergyOverdrawMission 0
scalar OsgEarthNet.uav[52] utilizationEnergyOverdrawMaintenance 221.68699645996
scalar OsgEarthNet.uav[52] utilizationCountMissions 38
scalar OsgEarthNet.uav[52] utilizationCountManeuversMission 544
scalar OsgEarthNet.uav[52] utilizationCountManeuversMaintenance 76
scalar OsgEarthNet.uav[52] utilizationCountChargeState 38
scalar OsgEarthNet.uav[52] utilizationCountOverdrawnAfterMission 1
scalar OsgEarthNet.uav[52] utilizationCountIdleState 38
scalar OsgEarthNet.uav[52] utilizationFail 0
scalar OsgEarthNet.uav[52] simulationTime 259200
scalar OsgEarthNet.uav[53] utilizationSecMission 11446.517952325
scalar OsgEarthNet.uav[53] utilizationSecMaintenance 9905.0462894299
scalar OsgEarthNet.uav[53] utilizationSecCharge 78140
scalar OsgEarthNet.uav[53] utilizationSecIdle 159708.43475824
scalar OsgEarthNet.uav[53] utilizationEnergyMission 56905.265201569
scalar OsgEarthNet.uav[53] utilizationEnergyMaintenance 46349.79050827
scalar OsgEarthNet.uav[53] utilizationEnergyCharge 102698.92895508
scalar OsgEarthNet.uav[53] utilizationEnergyOverdrawMission 0
scalar OsgEarthNet.uav[53] utilizationEnergyOverdrawMaintenance 0
scalar OsgEarthNet.uav[53] utilizationCountMissions 23
scalar OsgEarthNet.uav[53] utilizationCountManeuversMission 418
scalar OsgEarthNet.uav[53] utilizationCountManeuversMaintenance 46
scalar OsgEarthNet.uav[53] utilizationCountChargeState 23
scalar OsgEarthNet.uav[53] utilizationCountOverdrawnAfterMission 0
scalar OsgEarthNet.uav[53] utilizationCountIdleState 23
scalar OsgEarthNet.uav[53] utilizationFail 0
scalar OsgEarthNet.uav[53] simulationTime 259200
scalar OsgEarthNet.uav[54] utilizationSecMission 28426.905513353
scalar OsgEarthNet.uav[54] utilizationSecMaintenance 22259.70543104
scalar OsgEarthNet.uav[54] utilizationSecCharge 185241.38705561
scalar OsgEarthNet.uav[54] utilizationSecIdle 23272.001
scalar OsgEarthNet.uav[54] utilizationEnergyMission 136927.09184647
scalar OsgEarthNet.uav[54] utilizationEnergyMaintenance 104640.45664978
scalar OsgEarthNet.uav[54] utilizationEnergyCharge 241937.11816406
scalar OsgEarthNet.uav[54] utilizationEnergyOverdrawMission 0
scalar OsgEarthNet.uav[54] utilizationEnergyOverdrawMaintenance 0
scalar OsgEarthNet.uav[54] utilizationCountMissions 55
scalar OsgEarthNet.uav[54] utilizationCountManeuversMission 971
scalar OsgEarthNet.uav[54] utilizationCountManeuversMaintenance 110
scalar OsgEarthNet.uav[54] utilizationCountChargeState 55
scalar OsgEarthNet.uav[54] utilizationCountOverdrawnAfterMission 0
scalar OsgEarthNet.uav[54] utilizationCountIdleState 53
scalar OsgEarthNet.uav[54] utilizationFail 0
scalar OsgEarthNet.uav[54] simulationTime 259200
scalar OsgEarthNet.uav[55] utilizationSecMission 18056.407209845
scalar OsgEarthNet.uav[55] utilizationSecMaintenance 16560.923823255
scalar OsgEarthNet.uav[55] utilizationSecCharge 125320
scalar OsgEarthNet.uav[55] utilizationSecIdle 99262.6679669
scalar OsgEarthNet.uav[55] utilizationEnergyMission 87001.006763458
scalar OsgEarthNet.uav[55] utilizationEnergyMaintenance 77340.508728027
scalar OsgEarthNet.uav[55] utilizationEnergyCharge 163818.57226562
scalar OsgEarthNet.uav[55] utilizationEnergyOverdrawMission 0
scalar OsgEarthNet.uav[55] utilizationEnergyOverdrawMaintenance 355.35571289062
scalar OsgEarthNet.uav[55] utilizationCountMissions 37
scalar OsgEarthNet.uav[55] utilizationCountManeuversMission 531
scalar OsgEarthNet.uav[55] utilizationCountManeuversMaintenance 74
scalar OsgEarthNet.uav[55] utilizationCountChargeState 37
scalar OsgEarthNet.uav[55] utilizationCountOverdrawnAfterMission 1
scalar OsgEarthNet.uav[55] utilizationCountIdleState 36
scalar OsgEarthNet.uav[55] utilizationFail 0
scalar OsgEarthNet.uav[55] simulationTime 259200
scalar OsgEarthNet.uav[56] utilizationSecMission 17514.746970968
scalar OsgEarthNet.uav[56] utilizationSecMaintenance 16741.699778844
scalar OsgEarthNet.uav[56] utilizationSecCharge 122641.54725019
scalar OsgEarthNet.uav[56] utilizationSecIdle 102302.005
scalar OsgEarthNet.uav[56] utilizationEnergyMission 86922.475833893
scalar OsgEarthNet.uav[56] utilizationEnergyMaintenance 78409.803081512
scalar OsgEarthNet.uav[56] utilizationEnergyCharge 162507.03125
scalar OsgEarthNet.uav[56] utilizationEnergyOverdrawMission 0
scalar OsgEarthNet.uav[56] utilizationEnergyOverdrawMaintenance 0
scalar OsgEarthNet.uav[56] utilizationCountMissions 37
scalar OsgEarthNet.uav[56] utilizationCountManeuversMission 610
scalar OsgEarthNet.uav[56] utilizationCountManeuversMaintenance 74
scalar OsgEarthNet.uav[56] utilizationCountChargeState 37
scalar OsgEarthNet.uav[56] utilizationCountOverdrawnAfterMission 0
scalar OsgEarthNet.uav[56] utilizationCountIdleState 33
scalar OsgEarthNet.uav[56] utilizationFail 0
scalar OsgEarthNet.uav[56] simulationTime 259200
scalar OsgEarthNet.uav[57] utilizationSecMission 23047.839445389
scalar OsgEarthNet.uav[57] utilizationSecMaintenance 21524.611396511
scalar OsgEarthNet.uav[57] utilizationSecCharge 160746.49235414
scalar OsgEarthNet.uav[57] utilizationSecIdle 53881.055803961
scalar OsgEarthNet.uav[57] utilizationEnergyMission 113006.56875992
scalar OsgEarthNet.uav[57] utilizationEnergyMaintenance 99995.24250412
scalar OsgEarthNet.uav[57] utilizationEnergyCharge 210766.84301758
scalar OsgEarthNet.uav[57] utilizationEnergyOverdrawMission 0
scalar OsgEarthNet.uav[57] utilizationEnergyOverdrawMaintenance 0
scalar OsgEarthNet.uav[57] utilizationCountMissions 48
scalar OsgEarthNet.uav[57] utilizationCountManeuversMission 745
scalar OsgEarthNet.uav[57] utilizationCountManeuversMaintenance 96
scalar OsgEarthNet.uav[57] utilizationCountChargeState 48
scalar OsgEarthNet.uav[57] utilizationCountOverdrawnAfterMission 0
scalar OsgEarthNet.uav[57] utilizationCountIdleState 43
scalar OsgEarthNet.uav[57] utilizationFail 0
scalar OsgEarthNet.uav[57] simulationTime 259200
scalar OsgEarthNet.uav[58] utilizationSecMission 18506.267459058
scalar OsgEarthNet.uav[58] utilizationSecMaintenance 21093.984773612
scalar OsgEarthNet.uav[58] utilizationSecCharge 142547.74376733
scalar OsgEarthNet.uav[58] utilizationSecIdle 77052.003
scalar OsgEarthNet.uav[58] utilizationEnergyMission 90879.862369537
scalar OsgEarthNet.uav[58] utilizationEnergyMaintenance 97362.291454315
scalar OsgEarthNet.uav[58] utilizationEnergyCharge 188291.40722656
scalar OsgEarthNet.uav[58] utilizationEnergyOverdrawMission 0
scalar OsgEarthNet.uav[58] utilizationEnergyOverdrawMaintenance 139.72106933594
scalar OsgEarthNet.uav[58] utilizationCountMissions 42
scalar OsgEarthNet.uav[58] utilizationCountManeuversMission 576
scalar OsgEarthNet.uav[58] utilizationCountManeuversMaintenance 84
scalar OsgEarthNet.uav[58] utilizationCountChargeState 42
scalar OsgEarthNet.uav[58] utilizationCountOverdrawnAfterMission 1
scalar OsgEarthNet.uav[58] utilizationCountIdleState 39
scalar OsgEarthNet.uav[58] utilizationFail 0
scalar OsgEarthNet.uav[58] simulationTime 259200
scalar OsgEarthNet.uav[59] utilizationSecMission 21254.492887436
scalar OsgEarthNet.uav[59] utilizationSecMaintenance 19859.277342515
scalar OsgEarthNet.uav[59] utilizationSecCharge 149655.27851438
scalar OsgEarthNet.uav[59] utilizationSecIdle 68430.950255665
scalar OsgEarthNet.uav[59] utilizationEnergyMission 104061.98378754
scalar OsgEarthNet.uav[59] utilizationEnergyMaintenance 92469.469108581
scalar OsgEarthNet.uav[59] utilizationEnergyCharge 196660.33374023
scalar OsgEarthNet.uav[59] utilizationEnergyOverdrawMission 0
scalar OsgEarthNet.uav[59] utilizationEnergyOverdrawMaintenance 0
scalar OsgEarthNet.uav[59] utilizationCountMissions 45
scalar OsgEarthNet.uav[59] utilizationCountManeuversMission 704
scalar OsgEarthNet.uav[59] utilizationCountManeuversMaintenance 90
scalar OsgEarthNet.uav[59] utilizationCountChargeState 45
scalar OsgEarthNet.uav[59] utilizationCountOverdrawnAfterMission 0
scalar OsgEarthNet.uav[59] utilizationCountIdleState 43
scalar OsgEarthNet.uav[59] utilizationFail 0
scalar OsgEarthNet.uav[59] simulationTime 259200
scalar OsgEarthNet.uav[60] utilizationSecMission 23468.393995668
scalar OsgEarthNet.uav[60] utilizationSecMaintenance 20198.384909862
scalar OsgEarthNet.uav[60] utilizationSecCharge 155681.22009447
scalar OsgEarthNet.uav[60] utilizationSecIdle 59852
scalar OsgEarthNet.uav[60] utilizationEnergyMission 113226.44794083
scalar OsgEarthNet.uav[60] utilizationEnergyMaintenance 93315.310951233
scalar OsgEarthNet.uav[60] utilizationEnergyCharge 205108.97680664
scalar OsgEarthNet.uav[60] utilizationEnergyOverdrawMission 0
scalar OsgEarthNet.uav[60] utilizationEnergyOverdrawMaintenance 0
scalar OsgEarthNet.uav[60] utilizationCountMissions 46
scalar OsgEarthNet.uav[60] utilizationCountManeuversMission 659
scalar OsgEarthNet.uav[60] utilizationCountManeuversMaintenance 91
scalar OsgEarthNet.uav[60] utilizationCountChargeState 46
scalar OsgEarthNet.uav[60] utilizationCountOverdrawnAfterMission 0
scalar OsgEarthNet.uav[60] utilizationCountIdleState 41
scalar OsgEarthNet.uav[60] utilizationFail 0
scalar OsgEarthNet.uav[60] simulationTime 259200
scalar OsgEarthNet.uav[61] utilizationSecMission 22286.703109781
scalar OsgEarthNet.uav[61] utilizationSecMaintenance 22126.260889355
scalar OsgEarthNet.uav[61] utilizationSecCharge 160624.94779958
scalar OsgEarthNet.uav[61] utilizationSecIdle 54162.087201284
scalar OsgEarthNet.uav[61] utilizationEnergyMission 108455.70096207
scalar OsgEarthNet.uav[61] utilizationEnergyMaintenance 103488.10642624
scalar OsgEarthNet.uav[61] utilizationEnergyCharge 213080.11645508
scalar OsgEarthNet.uav[61] utilizationEnergyOverdrawMission 0
scalar OsgEarthNet.uav[61] utilizationEnergyOverdrawMaintenance 0
scalar OsgEarthNet.uav[61] utilizationCountMissions 48
scalar OsgEarthNet.uav[61] utilizationCountManeuversMission 743
scalar OsgEarthNet.uav[61] utilizationCountManeuversMaintenance 96
scalar OsgEarthNet.uav[61] utilizationCountChargeState 48
scalar OsgEarthNet.uav[61] utilizationCountOverdrawnAfterMission 0
scalar OsgEarthNet.uav[61] utilizationCountIdleState 38
scalar OsgEarthNet.uav[61] utilizationFail 0
scalar OsgEarthNet.uav[61] simulationTime 259200
scalar OsgEarthNet.uav[62] utilizationSecMission 26583.916140153
scalar OsgEarthNet.uav[62] utilizationSecMaintenance 21437.963372799
scalar OsgEarthNet.uav[62] utilizationSecCharge 171326.11848705
scalar OsgEarthNet.uav[62] utilizationSecIdle 39852.001
scalar OsgEarthNet.uav[62] utilizationEnergyMission 125571.30419159
scalar OsgEarthNet.uav[62] utilizationEnergyMaintenance 98629.260089874
scalar OsgEarthNet.uav[62] utilizationEnergyCharge 225543.13110352
scalar OsgEarthNet.uav[62] utilizationEnergyOverdrawMission 0
scalar OsgEarthNet.uav[62] utilizationEnergyOverdrawMaintenance 0
scalar OsgEarthNet.uav[62] utilizationCountMissions 51
scalar OsgEarthNet.uav[62] utilizationCountManeuversMission 771
scalar OsgEarthNet.uav[62] utilizationCountManeuversMaintenance 102
scalar OsgEarthNet.uav[62] utilizationCountChargeState 51
scalar OsgEarthNet.uav[62] utilizationCountOverdrawnAfterMission 0
scalar OsgEarthNet.uav[62] utilizationCountIdleState 44
scalar OsgEarthNet.uav[62] utilizationFail 0
scalar OsgEarthNet.uav[62] simulationTime 259200
scalar OsgEarthNet.uav[63] utilizationSecMission 22980.510673998
scalar OsgEarthNet.uav[63] utilizationSecMaintenance 23140.286490398
scalar OsgEarthNet.uav[63] utilizationSecCharge 166147.23098148
scalar OsgEarthNet.uav[63] utilizationSecIdle 46931.970854125
scalar OsgEarthNet.uav[63] utilizationEnergyMission 111190.54849243
scalar OsgEarthNet.uav[63] utilizationEnergyMaintenance 107297.24798584
scalar OsgEarthNet.uav[63] utilizationEnergyCharge 220183.68969727
scalar OsgEarthNet.uav[63] utilizationEnergyOverdrawMission 0
scalar OsgEarthNet.uav[63] utilizationEnergyOverdrawMaintenance 88.765365600586
scalar OsgEarthNet.uav[63] utilizationCountMissions 49
scalar OsgEarthNet.uav[63] utilizationCountManeuversMission 737
scalar OsgEarthNet.uav[63] utilizationCountManeuversMaintenance 98
scalar OsgEarthNet.uav[63] utilizationCountChargeState 49
scalar OsgEarthNet.uav[63] utilizationCountOverdrawnAfterMission 1
scalar OsgEarthNet.uav[63] utilizationCountIdleState 42
scalar OsgEarthNet.uav[63] utilizationFail 0
scalar OsgEarthNet.uav[63] simulationTime 259200
scalar OsgEarthNet.uav[64] utilizationSecMission 24073.007474899
scalar OsgEarthNet.uav[64] utilizationSecMaintenance 22731.965110706
scalar OsgEarthNet.uav[64] utilizationSecCharge 168760
scalar OsgEarthNet.uav[64] utilizationSecIdle 43635.026414395
scalar OsgEarthNet.uav[64] utilizationEnergyMission 116511.2338028
scalar OsgEarthNet.uav[64] utilizationEnergyMaintenance 104691.38028717
scalar OsgEarthNet.uav[64] utilizationEnergyCharge 222250.16381836
scalar OsgEarthNet.uav[64] utilizationEnergyOverdrawMission 0
scalar OsgEarthNet.uav[64] utilizationEnergyOverdrawMaintenance 0
scalar OsgEarthNet.uav[64] utilizationCountMissions 50
scalar OsgEarthNet.uav[64] utilizationCountManeuversMission 750
scalar OsgEarthNet.uav[64] utilizationCountManeuversMaintenance 100
scalar OsgEarthNet.uav[64] utilizationCountChargeState 50
scalar OsgEarthNet.uav[64] utilizationCountOverdrawnAfterMission 0
scalar OsgEarthNet.uav[64] utilizationCountIdleState 45
scalar OsgEarthNet.uav[64] utilizationFail 0
scalar OsgEarthNet.uav[64] simulationTime 259200
scalar OsgEarthNet.uav[65] utilizationSecMission 26810.251170306
scalar OsgEarthNet.uav[65] utilizationSecMaintenance 22668.119114295
scalar OsgEarthNet.uav[65] utilizationSecCharge 176390.92065817
scalar OsgEarthNet.uav[65] utilizationSecIdle 33330.708057228
scalar OsgEarthNet.uav[65] utilizationEnergyMission 127659.60341644
scalar OsgEarthNet.uav[65] utilizationEnergyMaintenance 105483.46341705
scalar OsgEarthNet.uav[65] utilizationEnergyCharge 233019.71728516
scalar OsgEarthNet.uav[65] utilizationEnergyOverdrawMission 0
scalar OsgEarthNet.uav[65] utilizationEnergyOverdrawMaintenance 0
[...]
scalar OsgEarthNet.uav[81] utilizationCountMissions 59
scalar OsgEarthNet.uav[81] utilizationCountManeuversMission 875
scalar OsgEarthNet.uav[81] utilizationCountManeuversMaintenance 119
scalar OsgEarthNet.uav[81] utilizationCountChargeState 59
scalar OsgEarthNet.uav[81] utilizationCountOverdrawnAfterMission 1
scalar OsgEarthNet.uav[81] utilizationCountIdleState 29
scalar OsgEarthNet.uav[81] utilizationFail 0
scalar OsgEarthNet.uav[81] simulationTime 259200
scalar OsgEarthNet.uav[82] utilizationSecMission 29254.209226108
scalar OsgEarthNet.uav[82] utilizationSecMaintenance 25790.041093694
scalar OsgEarthNet.uav[82] utilizationSecCharge 193450
scalar OsgEarthNet.uav[82] utilizationSecIdle 10705.748680198
scalar OsgEarthNet.uav[82] utilizationEnergyMission 141489.885394
scalar OsgEarthNet.uav[82] utilizationEnergyMaintenance 119191.06236267
scalar OsgEarthNet.uav[82] utilizationEnergyCharge 257868.32592773
scalar OsgEarthNet.uav[82] utilizationEnergyOverdrawMission 0
scalar OsgEarthNet.uav[82] utilizationEnergyOverdrawMaintenance 0
scalar OsgEarthNet.uav[82] utilizationCountMissions 58
scalar OsgEarthNet.uav[82] utilizationCountManeuversMission 832
scalar OsgEarthNet.uav[82] utilizationCountManeuversMaintenance 117
scalar OsgEarthNet.uav[82] utilizationCountChargeState 58
scalar OsgEarthNet.uav[82] utilizationCountOverdrawnAfterMission 0
scalar OsgEarthNet.uav[82] utilizationCountIdleState 31
scalar OsgEarthNet.uav[82] utilizationFail 0
scalar OsgEarthNet.uav[82] simulationTime 259200
scalar OsgEarthNet.uav[83] utilizationSecMission 29396.851815646
scalar OsgEarthNet.uav[83] utilizationSecMaintenance 24967.972615953
scalar OsgEarthNet.uav[83] utilizationSecCharge 190659.27783349
scalar OsgEarthNet.uav[83] utilizationSecIdle 14175.896734907
scalar OsgEarthNet.uav[83] utilizationEnergyMission 140590.55717087
scalar OsgEarthNet.uav[83] utilizationEnergyMaintenance 116117.55623245
scalar OsgEarthNet.uav[83] utilizationEnergyCharge 256335.48999023
scalar OsgEarthNet.uav[83] utilizationEnergyOverdrawMission 0
scalar OsgEarthNet.uav[83] utilizationEnergyOverdrawMaintenance 0
scalar OsgEarthNet.uav[83] utilizationCountMissions 57
scalar OsgEarthNet.uav[83] utilizationCountManeuversMission 813
scalar OsgEarthNet.uav[83] utilizationCountManeuversMaintenance 114
scalar OsgEarthNet.uav[83] utilizationCountChargeState 57
scalar OsgEarthNet.uav[83] utilizationCountOverdrawnAfterMission 0
scalar OsgEarthNet.uav[83] utilizationCountIdleState 31
scalar OsgEarthNet.uav[83] utilizationFail 0
scalar OsgEarthNet.uav[83] simulationTime 259200
scalar OsgEarthNet.uav[84] utilizationSecMission 28819.857033076
scalar OsgEarthNet.uav[84] utilizationSecMaintenance 25810.521559395
scalar OsgEarthNet.uav[84] utilizationSecCharge 192619.60212462
scalar OsgEarthNet.uav[84] utilizationSecIdle 11950.018282913
scalar OsgEarthNet.uav[84] utilizationEnergyMission 138128.66124725
scalar OsgEarthNet.uav[84] utilizationEnergyMaintenance 119151.23396683
scalar OsgEarthNet.uav[84] utilizationEnergyCharge 257771.30834961
scalar OsgEarthNet.uav[84] utilizationEnergyOverdrawMission 0
scalar OsgEarthNet.uav[84] utilizationEnergyOverdrawMaintenance 0
scalar OsgEarthNet.uav[84] utilizationCountMissions 58
scalar OsgEarthNet.uav[84] utilizationCountManeuversMission 899
scalar OsgEarthNet.uav[84] utilizationCountManeuversMaintenance 116
scalar OsgEarthNet.uav[84] utilizationCountChargeState 58
scalar OsgEarthNet.uav[84] utilizationCountOverdrawnAfterMission 0
scalar OsgEarthNet.uav[84] utilizationCountIdleState 32
scalar OsgEarthNet.uav[84] utilizationFail 0
scalar OsgEarthNet.uav[84] simulationTime 259200
scalar OsgEarthNet.uav[85] utilizationSecMission 29884.01884916
scalar OsgEarthNet.uav[85] utilizationSecMaintenance 25413.97615084
scalar OsgEarthNet.uav[85] utilizationSecCharge 193800
scalar OsgEarthNet.uav[85] utilizationSecIdle 10102.004
scalar OsgEarthNet.uav[85] utilizationEnergyMission 142413.83844757
scalar OsgEarthNet.uav[85] utilizationEnergyMaintenance 118272.53865457
scalar OsgEarthNet.uav[85] utilizationEnergyCharge 258451.74609375
scalar OsgEarthNet.uav[85] utilizationEnergyOverdrawMission 0
scalar OsgEarthNet.uav[85] utilizationEnergyOverdrawMaintenance 0
scalar OsgEarthNet.uav[85] utilizationCountMissions 59
scalar OsgEarthNet.uav[85] utilizationCountManeuversMission 833
scalar OsgEarthNet.uav[85] utilizationCountManeuversMaintenance 118
scalar OsgEarthNet.uav[85] utilizationCountChargeState 58
scalar OsgEarthNet.uav[85] utilizationCountOverdrawnAfterMission 0
scalar OsgEarthNet.uav[85] utilizationCountIdleState 34
scalar OsgEarthNet.uav[85] utilizationFail 0
scalar OsgEarthNet.uav[85] simulationTime 259200
scalar OsgEarthNet.uav[86] utilizationSecMission 28660.102822047
scalar OsgEarthNet.uav[86] utilizationSecMaintenance 26942.105645526
scalar OsgEarthNet.uav[86] utilizationSecCharge 193425.77953243
scalar OsgEarthNet.uav[86] utilizationSecIdle 10172.011
scalar OsgEarthNet.uav[86] utilizationEnergyMission 137069.69382477
scalar OsgEarthNet.uav[86] utilizationEnergyMaintenance 125584.49559402
scalar OsgEarthNet.uav[86] utilizationEnergyCharge 261873.20263672
scalar OsgEarthNet.uav[86] utilizationEnergyOverdrawMission 0
scalar OsgEarthNet.uav[86] utilizationEnergyOverdrawMaintenance 6.4766273498535
scalar OsgEarthNet.uav[86] utilizationCountMissions 59
scalar OsgEarthNet.uav[86] utilizationCountManeuversMission 894
scalar OsgEarthNet.uav[86] utilizationCountManeuversMaintenance 118
scalar OsgEarthNet.uav[86] utilizationCountChargeState 59
scalar OsgEarthNet.uav[86] utilizationCountOverdrawnAfterMission 1
scalar OsgEarthNet.uav[86] utilizationCountIdleState 23
scalar OsgEarthNet.uav[86] utilizationFail 0
scalar OsgEarthNet.uav[86] simulationTime 259200
scalar OsgEarthNet.uav[87] utilizationSecMission 27605.949086976
scalar OsgEarthNet.uav[87] utilizationSecMaintenance 27886.743512186
scalar OsgEarthNet.uav[87] utilizationSecCharge 193312.33916568
scalar OsgEarthNet.uav[87] utilizationSecIdle 10394.96723516
scalar OsgEarthNet.uav[87] utilizationEnergyMission 130678.94479752
scalar OsgEarthNet.uav[87] utilizationEnergyMaintenance 131413.67766953
scalar OsgEarthNet.uav[87] utilizationEnergyCharge 260272.35717773
scalar OsgEarthNet.uav[87] utilizationEnergyOverdrawMission 0
scalar OsgEarthNet.uav[87] utilizationEnergyOverdrawMaintenance 0
scalar OsgEarthNet.uav[87] utilizationCountMissions 59
scalar OsgEarthNet.uav[87] utilizationCountManeuversMission 802
scalar OsgEarthNet.uav[87] utilizationCountManeuversMaintenance 118
scalar OsgEarthNet.uav[87] utilizationCountChargeState 59
scalar OsgEarthNet.uav[87] utilizationCountOverdrawnAfterMission 0
scalar OsgEarthNet.uav[87] utilizationCountIdleState 26
scalar OsgEarthNet.uav[87] utilizationFail 0
scalar OsgEarthNet.uav[87] simulationTime 259200
scalar OsgEarthNet.uav[88] utilizationSecMission 28727.911457984
scalar OsgEarthNet.uav[88] utilizationSecMaintenance 27349.137756946
scalar OsgEarthNet.uav[88] utilizationSecCharge 194130.94278507
scalar OsgEarthNet.uav[88] utilizationSecIdle 8992.007
scalar OsgEarthNet.uav[88] utilizationEnergyMission 138062.62199402
scalar OsgEarthNet.uav[88] utilizationEnergyMaintenance 125602.94934845
scalar OsgEarthNet.uav[88] utilizationEnergyCharge 261276.39404297
scalar OsgEarthNet.uav[88] utilizationEnergyOverdrawMission 0
scalar OsgEarthNet.uav[88] utilizationEnergyOverdrawMaintenance 0
scalar OsgEarthNet.uav[88] utilizationCountMissions 60
scalar OsgEarthNet.uav[88] utilizationCountManeuversMission 883
scalar OsgEarthNet.uav[88] utilizationCountManeuversMaintenance 120
scalar OsgEarthNet.uav[88] utilizationCountChargeState 60
scalar OsgEarthNet.uav[88] utilizationCountOverdrawnAfterMission 0
scalar OsgEarthNet.uav[88] utilizationCountIdleState 24
scalar OsgEarthNet.uav[88] utilizationFail 0
scalar OsgEarthNet.uav[88] simulationTime 259200
scalar OsgEarthNet.uav[89] utilizationSecMission 30283.124909426
scalar OsgEarthNet.uav[89] utilizationSecMaintenance 24733.905444738
scalar OsgEarthNet.uav[89] utilizationSecCharge 192730
scalar OsgEarthNet.uav[89] utilizationSecIdle 11452.968645836
scalar OsgEarthNet.uav[89] utilizationEnergyMission 145627.83972168
scalar OsgEarthNet.uav[89] utilizationEnergyMaintenance 114633.67259637
scalar OsgEarthNet.uav[89] utilizationEnergyCharge 259202.62597656
scalar OsgEarthNet.uav[89] utilizationEnergyOverdrawMission 0
scalar OsgEarthNet.uav[89] utilizationEnergyOverdrawMaintenance 0
scalar OsgEarthNet.uav[89] utilizationCountMissions 59
scalar OsgEarthNet.uav[89] utilizationCountManeuversMission 988
scalar OsgEarthNet.uav[89] utilizationCountManeuversMaintenance 118
scalar OsgEarthNet.uav[89] utilizationCountChargeState 58
scalar OsgEarthNet.uav[89] utilizationCountOverdrawnAfterMission 0
scalar OsgEarthNet.uav[89] utilizationCountIdleState 25
scalar OsgEarthNet.uav[89] utilizationFail 0
scalar OsgEarthNet.uav[89] simulationTime 259200
scalar OsgEarthNet.uav[90] utilizationSecMission 29239.126966345
scalar OsgEarthNet.uav[90] utilizationSecMaintenance 27128.866033655
scalar OsgEarthNet.uav[90] utilizationSecCharge 195920
scalar OsgEarthNet.uav[90] utilizationSecIdle 6912.006
scalar OsgEarthNet.uav[90] utilizationEnergyMission 140727.13108444
scalar OsgEarthNet.uav[90] utilizationEnergyMaintenance 125295.79209206
scalar OsgEarthNet.uav[90] utilizationEnergyCharge 265129.12719727
scalar OsgEarthNet.uav[90] utilizationEnergyOverdrawMission 0
scalar OsgEarthNet.uav[90] utilizationEnergyOverdrawMaintenance 0
scalar OsgEarthNet.uav[90] utilizationCountMissions 61
scalar OsgEarthNet.uav[90] utilizationCountManeuversMission 982
scalar OsgEarthNet.uav[90] utilizationCountManeuversMaintenance 122
scalar OsgEarthNet.uav[90] utilizationCountChargeState 60
scalar OsgEarthNet.uav[90] utilizationCountOverdrawnAfterMission 0
scalar OsgEarthNet.uav[90] utilizationCountIdleState 19
scalar OsgEarthNet.uav[90] utilizationFail 0
scalar OsgEarthNet.uav[90] simulationTime 259200
scalar OsgEarthNet.uav[91] utilizationSecMission 28841.53843704
scalar OsgEarthNet.uav[91] utilizationSecMaintenance 26839.655166966
scalar OsgEarthNet.uav[91] utilizationSecCharge 195536.79839599
scalar OsgEarthNet.uav[91] utilizationSecIdle 7982.007
scalar OsgEarthNet.uav[91] utilizationEnergyMission 139794.52618408
scalar OsgEarthNet.uav[91] utilizationEnergyMaintenance 124819.02705765
scalar OsgEarthNet.uav[91] utilizationEnergyCharge 264207.24169922
scalar OsgEarthNet.uav[91] utilizationEnergyOverdrawMission 0
scalar OsgEarthNet.uav[91] utilizationEnergyOverdrawMaintenance 0
scalar OsgEarthNet.uav[91] utilizationCountMissions 60
scalar OsgEarthNet.uav[91] utilizationCountManeuversMission 984
scalar OsgEarthNet.uav[91] utilizationCountManeuversMaintenance 120
scalar OsgEarthNet.uav[91] utilizationCountChargeState 60
scalar OsgEarthNet.uav[91] utilizationCountOverdrawnAfterMission 0
scalar OsgEarthNet.uav[91] utilizationCountIdleState 27
scalar OsgEarthNet.uav[91] utilizationFail 0
scalar OsgEarthNet.uav[91] simulationTime 259200
scalar OsgEarthNet.uav[92] utilizationSecMission 29241.50104943
scalar OsgEarthNet.uav[92] utilizationSecMaintenance 26862.858957754
scalar OsgEarthNet.uav[92] utilizationSecCharge 196493.63899282
scalar OsgEarthNet.uav[92] utilizationSecIdle 6602
scalar OsgEarthNet.uav[92] utilizationEnergyMission 140465.54156113
scalar OsgEarthNet.uav[92] utilizationEnergyMaintenance 124611.50374603
scalar OsgEarthNet.uav[92] utilizationEnergyCharge 263749.67675781
scalar OsgEarthNet.uav[92] utilizationEnergyOverdrawMission 0
scalar OsgEarthNet.uav[92] utilizationEnergyOverdrawMaintenance 0
scalar OsgEarthNet.uav[92] utilizationCountMissions 60
scalar OsgEarthNet.uav[92] utilizationCountManeuversMission 929
scalar OsgEarthNet.uav[92] utilizationCountManeuversMaintenance 120
scalar OsgEarthNet.uav[92] utilizationCountChargeState 60
scalar OsgEarthNet.uav[92] utilizationCountOverdrawnAfterMission 0
scalar OsgEarthNet.uav[92] utilizationCountIdleState 29
scalar OsgEarthNet.uav[92] utilizationFail 0
scalar OsgEarthNet.uav[92] simulationTime 259200
scalar OsgEarthNet.uav[93] utilizationSecMission 29392.344652596
scalar OsgEarthNet.uav[93] utilizationSecMaintenance 25994.445578691
scalar OsgEarthNet.uav[93] utilizationSecCharge 193761.19476871
scalar OsgEarthNet.uav[93] utilizationSecIdle 10052.014
scalar OsgEarthNet.uav[93] utilizationEnergyMission 141687.75155258
scalar OsgEarthNet.uav[93] utilizationEnergyMaintenance 121909.54380035
scalar OsgEarthNet.uav[93] utilizationEnergyCharge 261348.23413086
scalar OsgEarthNet.uav[93] utilizationEnergyOverdrawMission 0
scalar OsgEarthNet.uav[93] utilizationEnergyOverdrawMaintenance 0
scalar OsgEarthNet.uav[93] utilizationCountMissions 59
scalar OsgEarthNet.uav[93] utilizationCountManeuversMission 844
scalar OsgEarthNet.uav[93] utilizationCountManeuversMaintenance 118
scalar OsgEarthNet.uav[93] utilizationCountChargeState 59
scalar OsgEarthNet.uav[93] utilizationCountOverdrawnAfterMission 0
scalar OsgEarthNet.uav[93] utilizationCountIdleState 28
scalar OsgEarthNet.uav[93] utilizationFail 0
scalar OsgEarthNet.uav[93] simulationTime 259200
scalar OsgEarthNet.uav[94] utilizationSecMission 29609.203846109
scalar OsgEarthNet.uav[94] utilizationSecMaintenance 26358.813806407
scalar OsgEarthNet.uav[94] utilizationSecCharge 196589.98134748
scalar OsgEarthNet.uav[94] utilizationSecIdle 6642
scalar OsgEarthNet.uav[94] utilizationEnergyMission 141790.05653763
scalar OsgEarthNet.uav[94] utilizationEnergyMaintenance 123867.22239685
scalar OsgEarthNet.uav[94] utilizationEnergyCharge 264975.86499023
scalar OsgEarthNet.uav[94] utilizationEnergyOverdrawMission 0
scalar OsgEarthNet.uav[94] utilizationEnergyOverdrawMaintenance 0
scalar OsgEarthNet.uav[94] utilizationCountMissions 61
scalar OsgEarthNet.uav[94] utilizationCountManeuversMission 956
scalar OsgEarthNet.uav[94] utilizationCountManeuversMaintenance 122
scalar OsgEarthNet.uav[94] utilizationCountChargeState 61
scalar OsgEarthNet.uav[94] utilizationCountOverdrawnAfterMission 0
scalar OsgEarthNet.uav[94] utilizationCountIdleState 28
scalar OsgEarthNet.uav[94] utilizationFail 0
scalar OsgEarthNet.uav[94] simulationTime 259200
scalar OsgEarthNet.uav[95] utilizationSecMission 27761.455787747
scalar OsgEarthNet.uav[95] utilizationSecMaintenance 29397.55769477
scalar OsgEarthNet.uav[95] utilizationSecCharge 197446.48757631
scalar OsgEarthNet.uav[95] utilizationSecIdle 4594.4979411756
scalar OsgEarthNet.uav[95] utilizationEnergyMission 134684.10139465
scalar OsgEarthNet.uav[95] utilizationEnergyMaintenance 136650.86790848
scalar OsgEarthNet.uav[95] utilizationEnergyCharge 267276.99353027
scalar OsgEarthNet.uav[95] utilizationEnergyOverdrawMission 0
scalar OsgEarthNet.uav[95] utilizationEnergyOverdrawMaintenance 56.72248840332
scalar OsgEarthNet.uav[95] utilizationCountMissions 61
scalar OsgEarthNet.uav[95] utilizationCountManeuversMission 845
scalar OsgEarthNet.uav[95] utilizationCountManeuversMaintenance 122
scalar OsgEarthNet.uav[95] utilizationCountChargeState 61
scalar OsgEarthNet.uav[95] utilizationCountOverdrawnAfterMission 1
scalar OsgEarthNet.uav[95] utilizationCountIdleState 18
scalar OsgEarthNet.uav[95] utilizationFail 0
scalar OsgEarthNet.uav[95] simulationTime 259200
scalar OsgEarthNet.uav[96] utilizationSecMission 27367.59111141
scalar OsgEarthNet.uav[96] utilizationSecMaintenance 28513.834664086
scalar OsgEarthNet.uav[96] utilizationSecCharge 195906.5652245
scalar OsgEarthNet.uav[96] utilizationSecIdle 7412.008
scalar OsgEarthNet.uav[96] utilizationEnergyMission 135248.88290405
scalar OsgEarthNet.uav[96] utilizationEnergyMaintenance 132381.15150833
scalar OsgEarthNet.uav[96] utilizationEnergyCharge 264925.10083008
scalar OsgEarthNet.uav[96] utilizationEnergyOverdrawMission 0
scalar OsgEarthNet.uav[96] utilizationEnergyOverdrawMaintenance 0
scalar OsgEarthNet.uav[96] utilizationCountMissions 60
scalar OsgEarthNet.uav[96] utilizationCountManeuversMission 926
scalar OsgEarthNet.uav[96] utilizationCountManeuversMaintenance 120
scalar OsgEarthNet.uav[96] utilizationCountChargeState 60
scalar OsgEarthNet.uav[96] utilizationCountOverdrawnAfterMission 0
scalar OsgEarthNet.uav[96] utilizationCountIdleState 24
scalar OsgEarthNet.uav[96] utilizationFail 0
scalar OsgEarthNet.uav[96] simulationTime 259200
scalar OsgEarthNet.uav[97] utilizationSecMission 26203.585662707
scalar OsgEarthNet.uav[97] utilizationSecMaintenance 30255.263327373
scalar OsgEarthNet.uav[97] utilizationSecCharge 195739.14100992
scalar OsgEarthNet.uav[97] utilizationSecIdle 7002.009
scalar OsgEarthNet.uav[97] utilizationEnergyMission 127524.5568428
scalar OsgEarthNet.uav[97] utilizationEnergyMaintenance 139894.07867813
scalar OsgEarthNet.uav[97] utilizationEnergyCharge 266623.15771484
scalar OsgEarthNet.uav[97] utilizationEnergyOverdrawMission 0
scalar OsgEarthNet.uav[97] utilizationEnergyOverdrawMaintenance 0
scalar OsgEarthNet.uav[97] utilizationCountMissions 60
scalar OsgEarthNet.uav[97] utilizationCountManeuversMission 801
scalar OsgEarthNet.uav[97] utilizationCountManeuversMaintenance 120
scalar OsgEarthNet.uav[97] utilizationCountChargeState 60
scalar OsgEarthNet.uav[97] utilizationCountOverdrawnAfterMission 0
scalar OsgEarthNet.uav[97] utilizationCountIdleState 17
scalar OsgEarthNet.uav[97] utilizationFail 0
scalar OsgEarthNet.uav[97] simulationTime 259200
scalar OsgEarthNet.uav[98] utilizationSecMission 28329.263655776
scalar OsgEarthNet.uav[98] utilizationSecMaintenance 27278.731344224
scalar OsgEarthNet.uav[98] utilizationSecCharge 197780
scalar OsgEarthNet.uav[98] utilizationSecIdle 5812.004
scalar OsgEarthNet.uav[98] utilizationEnergyMission 139222.45077133
scalar OsgEarthNet.uav[98] utilizationEnergyMaintenance 126676.04888702
scalar OsgEarthNet.uav[98] utilizationEnergyCharge 266163.99389648
scalar OsgEarthNet.uav[98] utilizationEnergyOverdrawMission 0
scalar OsgEarthNet.uav[98] utilizationEnergyOverdrawMaintenance 0
scalar OsgEarthNet.uav[98] utilizationCountMissions 60
scalar OsgEarthNet.uav[98] utilizationCountManeuversMission 929
scalar OsgEarthNet.uav[98] utilizationCountManeuversMaintenance 121
scalar OsgEarthNet.uav[98] utilizationCountChargeState 60
scalar OsgEarthNet.uav[98] utilizationCountOverdrawnAfterMission 0
scalar OsgEarthNet.uav[98] utilizationCountIdleState 23
scalar OsgEarthNet.uav[98] utilizationFail 0
scalar OsgEarthNet.uav[98] simulationTime 259200
scalar OsgEarthNet.uav[99] utilizationSecMission 26556.044345151
scalar OsgEarthNet.uav[99] utilizationSecMaintenance 30162.976495385
scalar OsgEarthNet.uav[99] utilizationSecCharge 198298.35199868
scalar OsgEarthNet.uav[99] utilizationSecIdle 4182.6261607893
scalar OsgEarthNet.uav[99] utilizationEnergyMission 127583.24149323
scalar OsgEarthNet.uav[99] utilizationEnergyMaintenance 141859.22819519
scalar OsgEarthNet.uav[99] utilizationEnergyCharge 269829.25585938
scalar OsgEarthNet.uav[99] utilizationEnergyOverdrawMission 0
scalar OsgEarthNet.uav[99] utilizationEnergyOverdrawMaintenance 0
scalar OsgEarthNet.uav[99] utilizationCountMissions 61
scalar OsgEarthNet.uav[99] utilizationCountManeuversMission 759
scalar OsgEarthNet.uav[99] utilizationCountManeuversMaintenance 122
scalar OsgEarthNet.uav[99] utilizationCountChargeState 61
scalar OsgEarthNet.uav[99] utilizationCountOverdrawnAfterMission 0
scalar OsgEarthNet.uav[99] utilizationCountIdleState 19
scalar OsgEarthNet.uav[99] utilizationFail 0
scalar OsgEarthNet.uav[99] simulationTime 259200
scalar OsgEarthNet.cs[0] usedPower 5208877.1683641
scalar OsgEarthNet.cs[0] chargedPower 5208877.1683641
scalar OsgEarthNet.cs[0] chargedMobileNodes 901
scalar OsgEarthNet.cs[0] reservations 1192
scalar OsgEarthNet.cs[1] usedPower 5683933.0095692
scalar OsgEarthNet.cs[1] chargedPower 5683933.0095692
scalar OsgEarthNet.cs[1] chargedMobileNodes 939
scalar OsgEarthNet.cs[1] reservations 1261
scalar OsgEarthNet.cs[2] usedPower 9726745.2680913
scalar OsgEarthNet.cs[2] chargedPower 9726745.2680913
scalar OsgEarthNet.cs[2] chargedMobileNodes 1780
scalar OsgEarthNet.cs[2] reservations 2206

