version 2
run Szenario_Hotel_Gabelbach-78-20180708-00:21:32-7904
attr configname Szenario_Hotel_Gabelbach
attr datetime 20180708-00:21:32
attr experiment Szenario_Hotel_Gabelbach
attr inifile omnetpp.ini
attr iterationvars "$quant=0.975, $replM=0"
attr iterationvarsf quant=0.975,replM=0-
attr measurement "$quant=0.975, $replM=0"
attr network OsgEarthNet
attr processid 7904
attr repetition 6
attr replication #6
attr resultdir results
attr runnumber 78
attr seedset 78
itervar quant 0.975
itervar replM 0
param *.osgEarthScene.scene "\"Szenario_Hotel_Gabelbach.earth\""
param *.playgroundLatitude 50.6830269
param *.playgroundLongitude 10.8538055
param *.playgroundWidth 3500m
param *.playgroundHeight 3500m
param *.numCSs 3
param *.numUAVs 100
param *.cs[0].posX 3537m
param *.cs[0].posY 965m
param *.cs[0].posZ 538m
param *.cs[1].posX 312m
param *.cs[1].posY 1262m
param *.cs[1].posZ 539m
param *.cs[2].posX 2185m
param *.cs[2].posY 3026m
param *.cs[2].posZ 777m
param *.uav[*].predictionQuantile 0.975
param *.uav[*].replacementMethod 0
param *.*.timeStep 10s
param *.uav[*].commandPreviewCommandCount 20
param *.missionControl.missionFiles "\"missions\\\\Szenario_WB_Hotel_Gabelbach_Mission_Hotel.waypoints,missions\\\\Szenario_WB_Hotel_Gabelbach_Mission_Kickelhahn.waypoints,missions\\\\Szenario_WB_Hotel_Gabelbach_Mission_Ilmenau_Sportplatz.waypoints,missions\\\\Szenario_WB_Hotel_Gabelbach_Mission_Manebach_Mitte.waypoints,missions\\\\Szenario_WB_Hotel_Gabelbach_Mission_Manebach_Sued.waypoints,missions\\\\Szenario_WB_Hotel_Gabelbach_Hover_HoheSchlaufe.waypoints,missions\\\\Szenario_WB_Hotel_Gabelbach_Hover_Kickelhahn.waypoints,missions\\\\Szenario_WB_Hotel_Gabelbach_Hover_Gabelbachskopf.waypoints,missions\\\\Szenario_WB_Hotel_Gabelbach_Hover_Dachskopf.waypoints\""
param *.uav[0].startX 3537m
param *.uav[0].startY 965m
param *.uav[0].startZ 539m
param *.uav[1].startX 312m
param *.uav[1].startY 1262m
param *.uav[1].startZ 540m
param *.uav[2].startX 2185m
param *.uav[2].startY 3026m
param *.uav[2].startZ 778m
param *.uav[3].startX 3537m
param *.uav[3].startY 965m
param *.uav[3].startZ 539m
param *.uav[4].startX 312m
param *.uav[4].startY 1262m
param *.uav[4].startZ 540m
param *.uav[5].startX 2185m
param *.uav[5].startY 3026m
param *.uav[5].startZ 778m
param *.uav[6].startX 3537m
param *.uav[6].startY 965m
param *.uav[6].startZ 539m
param *.uav[7].startX 312m
param *.uav[7].startY 1262m
param *.uav[7].startZ 540m
param *.uav[8].startX 2185m
param *.uav[8].startY 3026m
param *.uav[8].startZ 778m
param *.uav[9].startX 3537m
param *.uav[9].startY 965m
param *.uav[9].startZ 539m
param *.uav[10].startX 3537m
param *.uav[10].startY 965m
param *.uav[10].startZ 539m
param *.uav[11].startX 312m
param *.uav[11].startY 1262m
param *.uav[11].startZ 540m
param *.uav[12].startX 2185m
param *.uav[12].startY 3026m
param *.uav[12].startZ 778m
param *.uav[13].startX 3537m
param *.uav[13].startY 965m
param *.uav[13].startZ 539m
param *.uav[14].startX 312m
param *.uav[14].startY 1262m
param *.uav[14].startZ 540m
param *.uav[15].startX 2185m
param *.uav[15].startY 3026m
param *.uav[15].startZ 778m
param *.uav[16].startX 3537m
param *.uav[16].startY 965m
param *.uav[16].startZ 539m
param *.uav[17].startX 312m
param *.uav[17].startY 1262m
param *.uav[17].startZ 540m
param *.uav[18].startX 2185m
param *.uav[18].startY 3026m
param *.uav[18].startZ 778m
param *.uav[19].startX 3537m
param *.uav[19].startY 965m
param *.uav[19].startZ 539m
param *.uav[20].startX 3537m
param *.uav[20].startY 965m
param *.uav[20].startZ 539m
param *.uav[21].startX 312m
param *.uav[21].startY 1262m
param *.uav[21].startZ 540m
param *.uav[22].startX 2185m
param *.uav[22].startY 3026m
param *.uav[22].startZ 778m
param *.uav[23].startX 3537m
param *.uav[23].startY 965m
param *.uav[23].startZ 539m
param *.uav[24].startX 312m
param *.uav[24].startY 1262m
param *.uav[24].startZ 540m
param *.uav[25].startX 2185m
param *.uav[25].startY 3026m
param *.uav[25].startZ 778m
param *.uav[26].startX 3537m
param *.uav[26].startY 965m
param *.uav[26].startZ 539m
param *.uav[27].startX 312m
param *.uav[27].startY 1262m
param *.uav[27].startZ 540m
param *.uav[28].startX 2185m
param *.uav[28].startY 3026m
param *.uav[28].startZ 778m
param *.uav[29].startX 3537m
param *.uav[29].startY 965m
param *.uav[29].startZ 539m
param *.uav[30].startX 3537m
param *.uav[30].startY 965m
param *.uav[30].startZ 539m
param *.uav[31].startX 312m
param *.uav[31].startY 1262m
param *.uav[31].startZ 540m
param *.uav[32].startX 2185m
param *.uav[32].startY 3026m
param *.uav[32].startZ 778m
param *.uav[33].startX 3537m
param *.uav[33].startY 965m
param *.uav[33].startZ 539m
param *.uav[34].startX 312m
param *.uav[34].startY 1262m
param *.uav[34].startZ 540m
param *.uav[35].startX 2185m
param *.uav[35].startY 3026m
param *.uav[35].startZ 778m
param *.uav[36].startX 3537m
param *.uav[36].startY 965m
param *.uav[36].startZ 539m
param *.uav[37].startX 312m
param *.uav[37].startY 1262m
param *.uav[37].startZ 540m
param *.uav[38].startX 2185m
param *.uav[38].startY 3026m
param *.uav[38].startZ 778m
param *.uav[39].startX 3537m
param *.uav[39].startY 965m
param *.uav[39].startZ 539m
param *.uav[40].startX 3537m
param *.uav[40].startY 965m
param *.uav[40].startZ 539m
param *.uav[41].startX 312m
param *.uav[41].startY 1262m
param *.uav[41].startZ 540m
param *.uav[42].startX 2185m
param *.uav[42].startY 3026m
param *.uav[42].startZ 778m
param *.uav[43].startX 3537m
param *.uav[43].startY 965m
param *.uav[43].startZ 539m
param *.uav[44].startX 312m
param *.uav[44].startY 1262m
param *.uav[44].startZ 540m
param *.uav[45].startX 2185m
param *.uav[45].startY 3026m
param *.uav[45].startZ 778m
param *.uav[46].startX 3537m
param *.uav[46].startY 965m
param *.uav[46].startZ 539m
param *.uav[47].startX 312m
param *.uav[47].startY 1262m
param *.uav[47].startZ 540m
param *.uav[48].startX 2185m
param *.uav[48].startY 3026m
param *.uav[48].startZ 778m
param *.uav[49].startX 3537m
param *.uav[49].startY 965m
param *.uav[49].startZ 539m
param *.uav[50].startX 3537m
param *.uav[50].startY 965m
param *.uav[50].startZ 539m
param *.uav[51].startX 312m
param *.uav[51].startY 1262m
param *.uav[51].startZ 540m
param *.uav[52].startX 2185m
param *.uav[52].startY 3026m
param *.uav[52].startZ 778m
param *.uav[53].startX 3537m
param *.uav[53].startY 965m
param *.uav[53].startZ 539m
param *.uav[54].startX 312m
param *.uav[54].startY 1262m
param *.uav[54].startZ 540m
param *.uav[55].startX 2185m
param *.uav[55].startY 3026m
param *.uav[55].startZ 778m
param *.uav[56].startX 3537m
param *.uav[56].startY 965m
param *.uav[56].startZ 539m
param *.uav[57].startX 312m
param *.uav[57].startY 1262m
param *.uav[57].startZ 540m
param *.uav[58].startX 2185m
param *.uav[58].startY 3026m
param *.uav[58].startZ 778m
param *.uav[59].startX 3537m
param *.uav[59].startY 965m
param *.uav[59].startZ 539m
param *.uav[60].startX 3537m
param *.uav[60].startY 965m
param *.uav[60].startZ 539m
param *.uav[61].startX 312m
param *.uav[61].startY 1262m
param *.uav[61].startZ 540m
param *.uav[62].startX 2185m
param *.uav[62].startY 3026m
param *.uav[62].startZ 778m
param *.uav[63].startX 3537m
param *.uav[63].startY 965m
param *.uav[63].startZ 539m
param *.uav[64].startX 312m
param *.uav[64].startY 1262m
param *.uav[64].startZ 540m
param *.uav[65].startX 2185m
param *.uav[65].startY 3026m
param *.uav[65].startZ 778m
param *.uav[66].startX 3537m
param *.uav[66].startY 965m
param *.uav[66].startZ 539m
param *.uav[67].startX 312m
param *.uav[67].startY 1262m
param *.uav[67].startZ 540m
param *.uav[68].startX 2185m
param *.uav[68].startY 3026m
param *.uav[68].startZ 778m
param *.uav[69].startX 3537m
param *.uav[69].startY 965m
param *.uav[69].startZ 539m
param *.uav[70].startX 3537m
param *.uav[70].startY 965m
param *.uav[70].startZ 539m
param *.uav[71].startX 312m
param *.uav[71].startY 1262m
param *.uav[71].startZ 540m
param *.uav[72].startX 2185m
param *.uav[72].startY 3026m
param *.uav[72].startZ 778m
param *.uav[73].startX 3537m
param *.uav[73].startY 965m
param *.uav[73].startZ 539m
param *.uav[74].startX 312m
param *.uav[74].startY 1262m
param *.uav[74].startZ 540m
param *.uav[75].startX 2185m
param *.uav[75].startY 3026m
param *.uav[75].startZ 778m
param *.uav[76].startX 3537m
param *.uav[76].startY 965m
param *.uav[76].startZ 539m
param *.uav[77].startX 312m
param *.uav[77].startY 1262m
param *.uav[77].startZ 540m
param *.uav[78].startX 2185m
param *.uav[78].startY 3026m
param *.uav[78].startZ 778m
param *.uav[79].startX 3537m
param *.uav[79].startY 965m
param *.uav[79].startZ 539m
param *.uav[80].startX 3537m
param *.uav[80].startY 965m
param *.uav[80].startZ 539m
param *.uav[81].startX 312m
param *.uav[81].startY 1262m
param *.uav[81].startZ 540m
param *.uav[82].startX 2185m
param *.uav[82].startY 3026m
param *.uav[82].startZ 778m
param *.uav[83].startX 3537m
param *.uav[83].startY 965m
param *.uav[83].startZ 539m
param *.uav[84].startX 312m
param *.uav[84].startY 1262m
param *.uav[84].startZ 540m
param *.uav[85].startX 2185m
param *.uav[85].startY 3026m
param *.uav[85].startZ 778m
param *.uav[86].startX 3537m
param *.uav[86].startY 965m
param *.uav[86].startZ 539m
param *.uav[87].startX 312m
param *.uav[87].startY 1262m
param *.uav[87].startZ 540m
param *.uav[88].startX 2185m
param *.uav[88].startY 3026m
param *.uav[88].startZ 778m
param *.uav[89].startX 3537m
param *.uav[89].startY 965m
param *.uav[89].startZ 539m
param *.uav[90].startX 3537m
param *.uav[90].startY 965m
param *.uav[90].startZ 539m
param *.uav[91].startX 312m
param *.uav[91].startY 1262m
param *.uav[91].startZ 540m
param *.uav[92].startX 2185m
param *.uav[92].startY 3026m
param *.uav[92].startZ 778m
param *.uav[93].startX 3537m
param *.uav[93].startY 965m
param *.uav[93].startZ 539m
param *.uav[94].startX 312m
param *.uav[94].startY 1262m
param *.uav[94].startZ 540m
param *.uav[95].startX 2185m
param *.uav[95].startY 3026m
param *.uav[95].startZ 778m
param *.uav[96].startX 3537m
param *.uav[96].startY 965m
param *.uav[96].startZ 539m
param *.uav[97].startX 312m
param *.uav[97].startY 1262m
param *.uav[97].startZ 540m
param *.uav[98].startX 2185m
param *.uav[98].startY 3026m
param *.uav[98].startZ 778m
param *.uav[99].startX 3537m
param *.uav[99].startY 965m
param *.uav[99].startZ 539m
param *.osgEarthScene.scene "\"boston.earth\""
param *.playgroundLatitude 42.3558
param *.playgroundLongitude -71.0677
param *.playgroundWidth 400m
param *.playgroundHeight 200m
param *.channelController.connectionColor "\"#0000FF40\""
param *.channelController.showConnections false
param *.uav[*].modelURL "\"quadrocopter.small.obj.15.scale.0,0,90.rot\""
param *.uav[*].labelColor "\"#FF7C00CC\""
param *.uav[*].label2Color "\"#FF7C00EE\""
param *.uav[*].batteryCapacity 5200mAh
param *.uav[*].batteryRemaining uav[index].batteryCapacity
param *.uav[*].predictionQuantile 0.95
param *.uav[*].replacementMethod 2
param *.uav[*].weightedSumWeight 0.5
param *.cs[*].modelURL "\"chargingstation_v1.osgt.1.scale.0,0,0.rot.0,0,-15e-1.trans\""
param *.cs[*].spotsWaiting 999
param *.cs[*].spotsCharging 999
param *.cs[*].chargeEffectivenessPercentage 100
param *.cs[*].nonLinearPhaseStartPercentage 85
param *.cs[*].chargeCurrent 6.0A
param *.cs[*].prioritizeFastCharge true
param *.missionControl.replacementSearchMethod 0
param *.*.timeStep 9s

scalar OsgEarthNet.uav[0] utilizationSecMission 26900.990271671
scalar OsgEarthNet.uav[0] utilizationSecMaintenance 22192.703274623
scalar OsgEarthNet.uav[0] utilizationSecCharge 176924.29945371
scalar OsgEarthNet.uav[0] utilizationSecIdle 33182.006
scalar OsgEarthNet.uav[0] utilizationEnergyMission 128598.5101738
scalar OsgEarthNet.uav[0] utilizationEnergyMaintenance 102903.1437645
scalar OsgEarthNet.uav[0] utilizationEnergyCharge 231896.7409668
scalar OsgEarthNet.uav[0] utilizationEnergyOverdrawMission 0
scalar OsgEarthNet.uav[0] utilizationEnergyOverdrawMaintenance 134.38756561279
scalar OsgEarthNet.uav[0] utilizationCountMissions 53
scalar OsgEarthNet.uav[0] utilizationCountManeuversMission 756
scalar OsgEarthNet.uav[0] utilizationCountManeuversMaintenance 106
scalar OsgEarthNet.uav[0] utilizationCountChargeState 53
scalar OsgEarthNet.uav[0] utilizationCountOverdrawnAfterMission 2
scalar OsgEarthNet.uav[0] utilizationCountIdleState 53
scalar OsgEarthNet.uav[0] utilizationFail 0
scalar OsgEarthNet.uav[0] simulationTime 259200
scalar OsgEarthNet.uav[1] utilizationSecMission 23789.283303517
scalar OsgEarthNet.uav[1] utilizationSecMaintenance 22598.710696483
scalar OsgEarthNet.uav[1] utilizationSecCharge 168220
scalar OsgEarthNet.uav[1] utilizationSecIdle 44592.005
scalar OsgEarthNet.uav[1] utilizationEnergyMission 117329.56131455
scalar OsgEarthNet.uav[1] utilizationEnergyMaintenance 105306.4784317
scalar OsgEarthNet.uav[1] utilizationEnergyCharge 218900.06860352
scalar OsgEarthNet.uav[1] utilizationEnergyOverdrawMission 0
scalar OsgEarthNet.uav[1] utilizationEnergyOverdrawMaintenance 411.26110839844
scalar OsgEarthNet.uav[1] utilizationCountMissions 51
scalar OsgEarthNet.uav[1] utilizationCountManeuversMission 791
scalar OsgEarthNet.uav[1] utilizationCountManeuversMaintenance 103
scalar OsgEarthNet.uav[1] utilizationCountChargeState 51
scalar OsgEarthNet.uav[1] utilizationCountOverdrawnAfterMission 1
scalar OsgEarthNet.uav[1] utilizationCountIdleState 52
scalar OsgEarthNet.uav[1] utilizationFail 0
scalar OsgEarthNet.uav[1] simulationTime 259200
scalar OsgEarthNet.uav[2] utilizationSecMission 24087.830358115
scalar OsgEarthNet.uav[2] utilizationSecMaintenance 23780.936484002
scalar OsgEarthNet.uav[2] utilizationSecCharge 173780
scalar OsgEarthNet.uav[2] utilizationSecIdle 37551.232157883
scalar OsgEarthNet.uav[2] utilizationEnergyMission 116344.75098801
scalar OsgEarthNet.uav[2] utilizationEnergyMaintenance 110451.20606232
scalar OsgEarthNet.uav[2] utilizationEnergyCharge 226907.99926758
scalar OsgEarthNet.uav[2] utilizationEnergyOverdrawMission 0
scalar OsgEarthNet.uav[2] utilizationEnergyOverdrawMaintenance 0
scalar OsgEarthNet.uav[2] utilizationCountMissions 52
scalar OsgEarthNet.uav[2] utilizationCountManeuversMission 742
scalar OsgEarthNet.uav[2] utilizationCountManeuversMaintenance 104
scalar OsgEarthNet.uav[2] utilizationCountChargeState 52
scalar OsgEarthNet.uav[2] utilizationCountOverdrawnAfterMission 0
scalar OsgEarthNet.uav[2] utilizationCountIdleState 53
scalar OsgEarthNet.uav[2] utilizationFail 0
scalar OsgEarthNet.uav[2] simulationTime 259200
scalar OsgEarthNet.uav[3] utilizationSecMission 500
scalar OsgEarthNet.uav[3] utilizationSecMaintenance 363.8841636065
scalar OsgEarthNet.uav[3] utilizationSecCharge 3390
scalar OsgEarthNet.uav[3] utilizationSecIdle 254946.11483639
scalar OsgEarthNet.uav[3] utilizationEnergyMission 2575.3836212158
scalar OsgEarthNet.uav[3] utilizationEnergyMaintenance 1907.8360710144
scalar OsgEarthNet.uav[3] utilizationEnergyCharge 4378.1938476562
scalar OsgEarthNet.uav[3] utilizationEnergyOverdrawMission 0
scalar OsgEarthNet.uav[3] utilizationEnergyOverdrawMaintenance 0
scalar OsgEarthNet.uav[3] utilizationCountMissions 1
scalar OsgEarthNet.uav[3] utilizationCountManeuversMission 25
scalar OsgEarthNet.uav[3] utilizationCountManeuversMaintenance 2
scalar OsgEarthNet.uav[3] utilizationCountChargeState 1
scalar OsgEarthNet.uav[3] utilizationCountOverdrawnAfterMission 0
scalar OsgEarthNet.uav[3] utilizationCountIdleState 2
scalar OsgEarthNet.uav[3] utilizationFail 0
scalar OsgEarthNet.uav[3] simulationTime 259200
scalar OsgEarthNet.uav[4] utilizationSecMission 15326.26372805
scalar OsgEarthNet.uav[4] utilizationSecMaintenance 17141.495978269
scalar OsgEarthNet.uav[4] utilizationSecCharge 115215.86991395
scalar OsgEarthNet.uav[4] utilizationSecIdle 111516.36937973
scalar OsgEarthNet.uav[4] utilizationEnergyMission 73549.605602264
scalar OsgEarthNet.uav[4] utilizationEnergyMaintenance 79981.866756439
scalar OsgEarthNet.uav[4] utilizationEnergyCharge 151223.39892578
scalar OsgEarthNet.uav[4] utilizationEnergyOverdrawMission 0
scalar OsgEarthNet.uav[4] utilizationEnergyOverdrawMaintenance 0
scalar OsgEarthNet.uav[4] utilizationCountMissions 35
scalar OsgEarthNet.uav[4] utilizationCountManeuversMission 469
scalar OsgEarthNet.uav[4] utilizationCountManeuversMaintenance 70
scalar OsgEarthNet.uav[4] utilizationCountChargeState 35
scalar OsgEarthNet.uav[4] utilizationCountOverdrawnAfterMission 0
scalar OsgEarthNet.uav[4] utilizationCountIdleState 35
scalar OsgEarthNet.uav[4] utilizationFail 0
scalar OsgEarthNet.uav[4] simulationTime 259200
scalar OsgEarthNet.uav[5] utilizationSecMission 25532.645766691
scalar OsgEarthNet.uav[5] utilizationSecMaintenance 20014.261647081
scalar OsgEarthNet.uav[5] utilizationSecCharge 164763.46050556
scalar OsgEarthNet.uav[5] utilizationSecIdle 48889.631080665
scalar OsgEarthNet.uav[5] utilizationEnergyMission 123891.45179367
scalar OsgEarthNet.uav[5] utilizationEnergyMaintenance 93631.539360046
scalar OsgEarthNet.uav[5] utilizationEnergyCharge 216200.31542969
scalar OsgEarthNet.uav[5] utilizationEnergyOverdrawMission 0
scalar OsgEarthNet.uav[5] utilizationEnergyOverdrawMaintenance 0
scalar OsgEarthNet.uav[5] utilizationCountMissions 49
scalar OsgEarthNet.uav[5] utilizationCountManeuversMission 690
scalar OsgEarthNet.uav[5] utilizationCountManeuversMaintenance 98
scalar OsgEarthNet.uav[5] utilizationCountChargeState 49
scalar OsgEarthNet.uav[5] utilizationCountOverdrawnAfterMission 0
scalar OsgEarthNet.uav[5] utilizationCountIdleState 49
scalar OsgEarthNet.uav[5] utilizationFail 0
scalar OsgEarthNet.uav[5] simulationTime 259200
scalar OsgEarthNet.uav[6] utilizationSecMission 23568.559051737
scalar OsgEarthNet.uav[6] utilizationSecMaintenance 22230.403595739
scalar OsgEarthNet.uav[6] utilizationSecCharge 165429.83976177
scalar OsgEarthNet.uav[6] utilizationSecIdle 47971.196590751
scalar OsgEarthNet.uav[6] utilizationEnergyMission 113629.3666687
scalar OsgEarthNet.uav[6] utilizationEnergyMaintenance 103759.79213333
scalar OsgEarthNet.uav[6] utilizationEnergyCharge 215554.80761719
scalar OsgEarthNet.uav[6] utilizationEnergyOverdrawMission 0
scalar OsgEarthNet.uav[6] utilizationEnergyOverdrawMaintenance 0
scalar OsgEarthNet.uav[6] utilizationCountMissions 51
scalar OsgEarthNet.uav[6] utilizationCountManeuversMission 740
scalar OsgEarthNet.uav[6] utilizationCountManeuversMaintenance 102
scalar OsgEarthNet.uav[6] utilizationCountChargeState 51
scalar OsgEarthNet.uav[6] utilizationCountOverdrawnAfterMission 0
scalar OsgEarthNet.uav[6] utilizationCountIdleState 51
scalar OsgEarthNet.uav[6] utilizationFail 0
scalar OsgEarthNet.uav[6] simulationTime 259200
scalar OsgEarthNet.uav[7] utilizationSecMission 26997.309229838
scalar OsgEarthNet.uav[7] utilizationSecMaintenance 24404.163108085
scalar OsgEarthNet.uav[7] utilizationSecCharge 181070
scalar OsgEarthNet.uav[7] utilizationSecIdle 26728.526662077
scalar OsgEarthNet.uav[7] utilizationEnergyMission 128873.16141067
scalar OsgEarthNet.uav[7] utilizationEnergyMaintenance 112078.29401398
scalar OsgEarthNet.uav[7] utilizationEnergyCharge 236604.13256836
scalar OsgEarthNet.uav[7] utilizationEnergyOverdrawMission 0
scalar OsgEarthNet.uav[7] utilizationEnergyOverdrawMaintenance 0
scalar OsgEarthNet.uav[7] utilizationCountMissions 54
scalar OsgEarthNet.uav[7] utilizationCountManeuversMission 714
scalar OsgEarthNet.uav[7] utilizationCountManeuversMaintenance 109
scalar OsgEarthNet.uav[7] utilizationCountChargeState 54
scalar OsgEarthNet.uav[7] utilizationCountOverdrawnAfterMission 0
scalar OsgEarthNet.uav[7] utilizationCountIdleState 55
scalar OsgEarthNet.uav[7] utilizationFail 0
scalar OsgEarthNet.uav[7] simulationTime 259200
scalar OsgEarthNet.uav[8] utilizationSecMission 23093.076325731
scalar OsgEarthNet.uav[8] utilizationSecMaintenance 25647.52997982
scalar OsgEarthNet.uav[8] utilizationSecCharge 176680.21758404
scalar OsgEarthNet.uav[8] utilizationSecIdle 33779.175110411
scalar OsgEarthNet.uav[8] utilizationEnergyMission 112229.57151031
scalar OsgEarthNet.uav[8] utilizationEnergyMaintenance 119679.01673126
scalar OsgEarthNet.uav[8] utilizationEnergyCharge 230741.7265625
scalar OsgEarthNet.uav[8] utilizationEnergyOverdrawMission 0
scalar OsgEarthNet.uav[8] utilizationEnergyOverdrawMaintenance 0
scalar OsgEarthNet.uav[8] utilizationCountMissions 54
scalar OsgEarthNet.uav[8] utilizationCountManeuversMission 722
scalar OsgEarthNet.uav[8] utilizationCountManeuversMaintenance 108
scalar OsgEarthNet.uav[8] utilizationCountChargeState 54
scalar OsgEarthNet.uav[8] utilizationCountOverdrawnAfterMission 0
scalar OsgEarthNet.uav[8] utilizationCountIdleState 54
scalar OsgEarthNet.uav[8] utilizationFail 0
scalar OsgEarthNet.uav[8] simulationTime 259200
scalar OsgEarthNet.uav[9] utilizationSecMission 25062.758661982
scalar OsgEarthNet.uav[9] utilizationSecMaintenance 26117.946751936
scalar OsgEarthNet.uav[9] utilizationSecCharge 184767.28958608
scalar OsgEarthNet.uav[9] utilizationSecIdle 23252.004
scalar OsgEarthNet.uav[9] utilizationEnergyMission 122855.28834534
scalar OsgEarthNet.uav[9] utilizationEnergyMaintenance 123038.4302597
scalar OsgEarthNet.uav[9] utilizationEnergyCharge 241931.0279541
scalar OsgEarthNet.uav[9] utilizationEnergyOverdrawMission 0
scalar OsgEarthNet.uav[9] utilizationEnergyOverdrawMaintenance 124.24041748047
scalar OsgEarthNet.uav[9] utilizationCountMissions 56
scalar OsgEarthNet.uav[9] utilizationCountManeuversMission 863
scalar OsgEarthNet.uav[9] utilizationCountManeuversMaintenance 112
scalar OsgEarthNet.uav[9] utilizationCountChargeState 56
scalar OsgEarthNet.uav[9] utilizationCountOverdrawnAfterMission 1
scalar OsgEarthNet.uav[9] utilizationCountIdleState 56
scalar OsgEarthNet.uav[9] utilizationFail 0
scalar OsgEarthNet.uav[9] simulationTime 259200
scalar OsgEarthNet.uav[10] utilizationSecMission 1580
scalar OsgEarthNet.uav[10] utilizationSecMaintenance 1763.8554412009
scalar OsgEarthNet.uav[10] utilizationSecCharge 13110
scalar OsgEarthNet.uav[10] utilizationSecIdle 242746.1435588
scalar OsgEarthNet.uav[10] utilizationEnergyMission 7714.7168617249
scalar OsgEarthNet.uav[10] utilizationEnergyMaintenance 8075.1669235229
scalar OsgEarthNet.uav[10] utilizationEnergyCharge 17147.412597656
scalar OsgEarthNet.uav[10] utilizationEnergyOverdrawMission 0
scalar OsgEarthNet.uav[10] utilizationEnergyOverdrawMaintenance 0
scalar OsgEarthNet.uav[10] utilizationCountMissions 4
scalar OsgEarthNet.uav[10] utilizationCountManeuversMission 79
scalar OsgEarthNet.uav[10] utilizationCountManeuversMaintenance 8
scalar OsgEarthNet.uav[10] utilizationCountChargeState 4
scalar OsgEarthNet.uav[10] utilizationCountOverdrawnAfterMission 0
scalar OsgEarthNet.uav[10] utilizationCountIdleState 5
scalar OsgEarthNet.uav[10] utilizationFail 0
scalar OsgEarthNet.uav[10] simulationTime 259200
scalar OsgEarthNet.uav[11] utilizationSecMission 25680.393542509
scalar OsgEarthNet.uav[11] utilizationSecMaintenance 24053.915857988
scalar OsgEarthNet.uav[11] utilizationSecCharge 181260
scalar OsgEarthNet.uav[11] utilizationSecIdle 28205.689599503
scalar OsgEarthNet.uav[11] utilizationEnergyMission 126181.57753754
scalar OsgEarthNet.uav[11] utilizationEnergyMaintenance 111848.82840729
scalar OsgEarthNet.uav[11] utilizationEnergyCharge 237634.20898438
scalar OsgEarthNet.uav[11] utilizationEnergyOverdrawMission 0
scalar OsgEarthNet.uav[11] utilizationEnergyOverdrawMaintenance 0
scalar OsgEarthNet.uav[11] utilizationCountMissions 54
scalar OsgEarthNet.uav[11] utilizationCountManeuversMission 797
scalar OsgEarthNet.uav[11] utilizationCountManeuversMaintenance 108
scalar OsgEarthNet.uav[11] utilizationCountChargeState 54
scalar OsgEarthNet.uav[11] utilizationCountOverdrawnAfterMission 0
scalar OsgEarthNet.uav[11] utilizationCountIdleState 55
scalar OsgEarthNet.uav[11] utilizationFail 0
scalar OsgEarthNet.uav[11] simulationTime 259200
scalar OsgEarthNet.uav[12] utilizationSecMission 24673.508255307
scalar OsgEarthNet.uav[12] utilizationSecMaintenance 24262.901283008
scalar OsgEarthNet.uav[12] utilizationSecCharge 177024.36984777
scalar OsgEarthNet.uav[12] utilizationSecIdle 33239.219613916
scalar OsgEarthNet.uav[12] utilizationEnergyMission 121084.87135696
scalar OsgEarthNet.uav[12] utilizationEnergyMaintenance 113351.69792938
scalar OsgEarthNet.uav[12] utilizationEnergyCharge 231560.24951172
scalar OsgEarthNet.uav[12] utilizationEnergyOverdrawMission 0
scalar OsgEarthNet.uav[12] utilizationEnergyOverdrawMaintenance 0
scalar OsgEarthNet.uav[12] utilizationCountMissions 54
scalar OsgEarthNet.uav[12] utilizationCountManeuversMission 795
scalar OsgEarthNet.uav[12] utilizationCountManeuversMaintenance 108
scalar OsgEarthNet.uav[12] utilizationCountChargeState 54
scalar OsgEarthNet.uav[12] utilizationCountOverdrawnAfterMission 0
scalar OsgEarthNet.uav[12] utilizationCountIdleState 54
scalar OsgEarthNet.uav[12] utilizationFail 0
scalar OsgEarthNet.uav[12] simulationTime 259200
scalar OsgEarthNet.uav[13] utilizationSecMission 24759.528331746
scalar OsgEarthNet.uav[13] utilizationSecMaintenance 25655.262920276
scalar OsgEarthNet.uav[13] utilizationSecCharge 183853.20574798
scalar OsgEarthNet.uav[13] utilizationSecIdle 24932.002
scalar OsgEarthNet.uav[13] utilizationEnergyMission 122709.69264603
scalar OsgEarthNet.uav[13] utilizationEnergyMaintenance 120446.66181946
scalar OsgEarthNet.uav[13] utilizationEnergyCharge 238597.75860596
scalar OsgEarthNet.uav[13] utilizationEnergyOverdrawMission 0
scalar OsgEarthNet.uav[13] utilizationEnergyOverdrawMaintenance 0
scalar OsgEarthNet.uav[13] utilizationCountMissions 57
scalar OsgEarthNet.uav[13] utilizationCountManeuversMission 895
scalar OsgEarthNet.uav[13] utilizationCountManeuversMaintenance 114
scalar OsgEarthNet.uav[13] utilizationCountChargeState 57
scalar OsgEarthNet.uav[13] utilizationCountOverdrawnAfterMission 0
scalar OsgEarthNet.uav[13] utilizationCountIdleState 57
scalar OsgEarthNet.uav[13] utilizationFail 0
scalar OsgEarthNet.uav[13] simulationTime 259200
scalar OsgEarthNet.uav[14] utilizationSecMission 24406.798666596
scalar OsgEarthNet.uav[14] utilizationSecMaintenance 19356.998185363
scalar OsgEarthNet.uav[14] utilizationSecCharge 156481.49844396
scalar OsgEarthNet.uav[14] utilizationSecIdle 58954.703704081
scalar OsgEarthNet.uav[14] utilizationEnergyMission 114893.41288757
scalar OsgEarthNet.uav[14] utilizationEnergyMaintenance 90992.792732239
scalar OsgEarthNet.uav[14] utilizationEnergyCharge 205347.99609375
scalar OsgEarthNet.uav[14] utilizationEnergyOverdrawMission 0
scalar OsgEarthNet.uav[14] utilizationEnergyOverdrawMaintenance 0
scalar OsgEarthNet.uav[14] utilizationCountMissions 47
scalar OsgEarthNet.uav[14] utilizationCountManeuversMission 625
scalar OsgEarthNet.uav[14] utilizationCountManeuversMaintenance 94
scalar OsgEarthNet.uav[14] utilizationCountChargeState 47
scalar OsgEarthNet.uav[14] utilizationCountOverdrawnAfterMission 0
scalar OsgEarthNet.uav[14] utilizationCountIdleState 47
scalar OsgEarthNet.uav[14] utilizationFail 0
scalar OsgEarthNet.uav[14] simulationTime 259200
scalar OsgEarthNet.uav[15] utilizationSecMission 23669.470782971
scalar OsgEarthNet.uav[15] utilizationSecMaintenance 19213.843964984
scalar OsgEarthNet.uav[15] utilizationSecCharge 156324.67925204
scalar OsgEarthNet.uav[15] utilizationSecIdle 59992.005
scalar OsgEarthNet.uav[15] utilizationEnergyMission 114267.6439476
scalar OsgEarthNet.uav[15] utilizationEnergyMaintenance 89906.729427338
scalar OsgEarthNet.uav[15] utilizationEnergyCharge 204509.94116211
scalar OsgEarthNet.uav[15] utilizationEnergyOverdrawMission 0
scalar OsgEarthNet.uav[15] utilizationEnergyOverdrawMaintenance 144.10122680664
scalar OsgEarthNet.uav[15] utilizationCountMissions 47
scalar OsgEarthNet.uav[15] utilizationCountManeuversMission 796
scalar OsgEarthNet.uav[15] utilizationCountManeuversMaintenance 94
scalar OsgEarthNet.uav[15] utilizationCountChargeState 47
scalar OsgEarthNet.uav[15] utilizationCountOverdrawnAfterMission 1
scalar OsgEarthNet.uav[15] utilizationCountIdleState 47
scalar OsgEarthNet.uav[15] utilizationFail 0
scalar OsgEarthNet.uav[15] simulationTime 259200
scalar OsgEarthNet.uav[16] utilizationSecMission 21754.175786638
scalar OsgEarthNet.uav[16] utilizationSecMaintenance 19460.911138508
scalar OsgEarthNet.uav[16] utilizationSecCharge 146267.63815075
scalar OsgEarthNet.uav[16] utilizationSecIdle 71717.273924105
scalar OsgEarthNet.uav[16] utilizationEnergyMission 103133.42422485
scalar OsgEarthNet.uav[16] utilizationEnergyMaintenance 91626.650535583
scalar OsgEarthNet.uav[16] utilizationEnergyCharge 190710.26135254
scalar OsgEarthNet.uav[16] utilizationEnergyOverdrawMission 0
scalar OsgEarthNet.uav[16] utilizationEnergyOverdrawMaintenance 0
scalar OsgEarthNet.uav[16] utilizationCountMissions 45
scalar OsgEarthNet.uav[16] utilizationCountManeuversMission 578
scalar OsgEarthNet.uav[16] utilizationCountManeuversMaintenance 90
scalar OsgEarthNet.uav[16] utilizationCountChargeState 45
scalar OsgEarthNet.uav[16] utilizationCountOverdrawnAfterMission 0
scalar OsgEarthNet.uav[16] utilizationCountIdleState 45
scalar OsgEarthNet.uav[16] utilizationFail 0
scalar OsgEarthNet.uav[16] simulationTime 259200
scalar OsgEarthNet.uav[17] utilizationSecMission 7985.5456880775
scalar OsgEarthNet.uav[17] utilizationSecMaintenance 5368.8171707428
scalar OsgEarthNet.uav[17] utilizationSecCharge 48930
scalar OsgEarthNet.uav[17] utilizationSecIdle 196915.63614118
scalar OsgEarthNet.uav[17] utilizationEnergyMission 38979.827285767
scalar OsgEarthNet.uav[17] utilizationEnergyMaintenance 25155.996505737
scalar OsgEarthNet.uav[17] utilizationEnergyCharge 63409.645751953
scalar OsgEarthNet.uav[17] utilizationEnergyOverdrawMission 0
scalar OsgEarthNet.uav[17] utilizationEnergyOverdrawMaintenance 0
scalar OsgEarthNet.uav[17] utilizationCountMissions 15
scalar OsgEarthNet.uav[17] utilizationCountManeuversMission 267
scalar OsgEarthNet.uav[17] utilizationCountManeuversMaintenance 30
scalar OsgEarthNet.uav[17] utilizationCountChargeState 15
scalar OsgEarthNet.uav[17] utilizationCountOverdrawnAfterMission 0
scalar OsgEarthNet.uav[17] utilizationCountIdleState 16
scalar OsgEarthNet.uav[17] utilizationFail 0
scalar OsgEarthNet.uav[17] simulationTime 259200
scalar OsgEarthNet.uav[18] utilizationSecMission 5631.0960672697
scalar OsgEarthNet.uav[18] utilizationSecMaintenance 3849.7874937408
scalar OsgEarthNet.uav[18] utilizationSecCharge 34100
scalar OsgEarthNet.uav[18] utilizationSecIdle 215619.11543899
scalar OsgEarthNet.uav[18] utilizationEnergyMission 27365.425437927
scalar OsgEarthNet.uav[18] utilizationEnergyMaintenance 17884.027984619
scalar OsgEarthNet.uav[18] utilizationEnergyCharge 44955.778320312
scalar OsgEarthNet.uav[18] utilizationEnergyOverdrawMission 0
scalar OsgEarthNet.uav[18] utilizationEnergyOverdrawMaintenance 0
scalar OsgEarthNet.uav[18] utilizationCountMissions 10
scalar OsgEarthNet.uav[18] utilizationCountManeuversMission 156
scalar OsgEarthNet.uav[18] utilizationCountManeuversMaintenance 20
scalar OsgEarthNet.uav[18] utilizationCountChargeState 10
scalar OsgEarthNet.uav[18] utilizationCountOverdrawnAfterMission 0
scalar OsgEarthNet.uav[18] utilizationCountIdleState 11
scalar OsgEarthNet.uav[18] utilizationFail 0
scalar OsgEarthNet.uav[18] simulationTime 259200
scalar OsgEarthNet.uav[19] utilizationSecMission 11425.309381071
scalar OsgEarthNet.uav[19] utilizationSecMaintenance 12463.160001769
scalar OsgEarthNet.uav[19] utilizationSecCharge 83556.629294355
scalar OsgEarthNet.uav[19] utilizationSecIdle 151754.90032281
scalar OsgEarthNet.uav[19] utilizationEnergyMission 56168.472080231
scalar OsgEarthNet.uav[19] utilizationEnergyMaintenance 56780.373634338
scalar OsgEarthNet.uav[19] utilizationEnergyCharge 109445.01025391
scalar OsgEarthNet.uav[19] utilizationEnergyOverdrawMission 0
scalar OsgEarthNet.uav[19] utilizationEnergyOverdrawMaintenance 0
scalar OsgEarthNet.uav[19] utilizationCountMissions 26
scalar OsgEarthNet.uav[19] utilizationCountManeuversMission 334
scalar OsgEarthNet.uav[19] utilizationCountManeuversMaintenance 52
scalar OsgEarthNet.uav[19] utilizationCountChargeState 26
scalar OsgEarthNet.uav[19] utilizationCountOverdrawnAfterMission 0
scalar OsgEarthNet.uav[19] utilizationCountIdleState 26
scalar OsgEarthNet.uav[19] utilizationFail 0
scalar OsgEarthNet.uav[19] simulationTime 259200
scalar OsgEarthNet.uav[20] utilizationSecMission 26047.683372419
scalar OsgEarthNet.uav[20] utilizationSecMaintenance 23277.112548649
scalar OsgEarthNet.uav[20] utilizationSecCharge 178900
scalar OsgEarthNet.uav[20] utilizationSecIdle 30975.203078932
scalar OsgEarthNet.uav[20] utilizationEnergyMission 126379.56880188
scalar OsgEarthNet.uav[20] utilizationEnergyMaintenance 108695.88398743
scalar OsgEarthNet.uav[20] utilizationEnergyCharge 232745.25805664
scalar OsgEarthNet.uav[20] utilizationEnergyOverdrawMission 0
scalar OsgEarthNet.uav[20] utilizationEnergyOverdrawMaintenance 0
scalar OsgEarthNet.uav[20] utilizationCountMissions 54
scalar OsgEarthNet.uav[20] utilizationCountManeuversMission 803
scalar OsgEarthNet.uav[20] utilizationCountManeuversMaintenance 108
scalar OsgEarthNet.uav[20] utilizationCountChargeState 54
scalar OsgEarthNet.uav[20] utilizationCountOverdrawnAfterMission 0
scalar OsgEarthNet.uav[20] utilizationCountIdleState 55
scalar OsgEarthNet.uav[20] utilizationFail 0
scalar OsgEarthNet.uav[20] simulationTime 259200
scalar OsgEarthNet.uav[21] utilizationSecMission 28256.956091712
scalar OsgEarthNet.uav[21] utilizationSecMaintenance 22877.127543175
scalar OsgEarthNet.uav[21] utilizationSecCharge 185533.91536511
scalar OsgEarthNet.uav[21] utilizationSecIdle 22532
scalar OsgEarthNet.uav[21] utilizationEnergyMission 137290.26348495
scalar OsgEarthNet.uav[21] utilizationEnergyMaintenance 106593.26589584
scalar OsgEarthNet.uav[21] utilizationEnergyCharge 243280.41308594
scalar OsgEarthNet.uav[21] utilizationEnergyOverdrawMission 0
scalar OsgEarthNet.uav[21] utilizationEnergyOverdrawMaintenance 0
scalar OsgEarthNet.uav[21] utilizationCountMissions 56
scalar OsgEarthNet.uav[21] utilizationCountManeuversMission 857
scalar OsgEarthNet.uav[21] utilizationCountManeuversMaintenance 111
scalar OsgEarthNet.uav[21] utilizationCountChargeState 56
scalar OsgEarthNet.uav[21] utilizationCountOverdrawnAfterMission 0
scalar OsgEarthNet.uav[21] utilizationCountIdleState 56
scalar OsgEarthNet.uav[21] utilizationFail 0
scalar OsgEarthNet.uav[21] simulationTime 259200
scalar OsgEarthNet.uav[22] utilizationSecMission 16977.120355355
scalar OsgEarthNet.uav[22] utilizationSecMaintenance 16865.523642302
scalar OsgEarthNet.uav[22] utilizationSecCharge 123960
scalar OsgEarthNet.uav[22] utilizationSecIdle 101397.35500234
scalar OsgEarthNet.uav[22] utilizationEnergyMission 84243.907848358
scalar OsgEarthNet.uav[22] utilizationEnergyMaintenance 78875.692928314
scalar OsgEarthNet.uav[22] utilizationEnergyCharge 162275.87304688
scalar OsgEarthNet.uav[22] utilizationEnergyOverdrawMission 0
scalar OsgEarthNet.uav[22] utilizationEnergyOverdrawMaintenance 0
scalar OsgEarthNet.uav[22] utilizationCountMissions 37
scalar OsgEarthNet.uav[22] utilizationCountManeuversMission 529
scalar OsgEarthNet.uav[22] utilizationCountManeuversMaintenance 74
scalar OsgEarthNet.uav[22] utilizationCountChargeState 37
scalar OsgEarthNet.uav[22] utilizationCountOverdrawnAfterMission 0
scalar OsgEarthNet.uav[22] utilizationCountIdleState 38
scalar OsgEarthNet.uav[22] utilizationFail 0
scalar OsgEarthNet.uav[22] simulationTime 259200
scalar OsgEarthNet.uav[23] utilizationSecMission 23161.120721549
scalar OsgEarthNet.uav[23] utilizationSecMaintenance 17301.776893637
scalar OsgEarthNet.uav[23] utilizationSecCharge 145574.65248364
scalar OsgEarthNet.uav[23] utilizationSecIdle 73162.448901174
scalar OsgEarthNet.uav[23] utilizationEnergyMission 112086.30853271
scalar OsgEarthNet.uav[23] utilizationEnergyMaintenance 79858.021579742
scalar OsgEarthNet.uav[23] utilizationEnergyCharge 191215.77807617
scalar OsgEarthNet.uav[23] utilizationEnergyOverdrawMission 0
scalar OsgEarthNet.uav[23] utilizationEnergyOverdrawMaintenance 0
scalar OsgEarthNet.uav[23] utilizationCountMissions 44
scalar OsgEarthNet.uav[23] utilizationCountManeuversMission 715
scalar OsgEarthNet.uav[23] utilizationCountManeuversMaintenance 88
scalar OsgEarthNet.uav[23] utilizationCountChargeState 44
scalar OsgEarthNet.uav[23] utilizationCountOverdrawnAfterMission 0
scalar OsgEarthNet.uav[23] utilizationCountIdleState 44
scalar OsgEarthNet.uav[23] utilizationFail 0
scalar OsgEarthNet.uav[23] simulationTime 259200
scalar OsgEarthNet.uav[24] utilizationSecMission 26699.021930241
scalar OsgEarthNet.uav[24] utilizationSecMaintenance 19485.004969778
scalar OsgEarthNet.uav[24] utilizationSecCharge 167120.14391518
scalar OsgEarthNet.uav[24] utilizationSecIdle 45895.828184797
scalar OsgEarthNet.uav[24] utilizationEnergyMission 127786.78310394
scalar OsgEarthNet.uav[24] utilizationEnergyMaintenance 90797.476444244
scalar OsgEarthNet.uav[24] utilizationEnergyCharge 219969.86010742
scalar OsgEarthNet.uav[24] utilizationEnergyOverdrawMission 0
scalar OsgEarthNet.uav[24] utilizationEnergyOverdrawMaintenance 0
scalar OsgEarthNet.uav[24] utilizationCountMissions 50
scalar OsgEarthNet.uav[24] utilizationCountManeuversMission 771
scalar OsgEarthNet.uav[24] utilizationCountManeuversMaintenance 100
scalar OsgEarthNet.uav[24] utilizationCountChargeState 50
scalar OsgEarthNet.uav[24] utilizationCountOverdrawnAfterMission 0
scalar OsgEarthNet.uav[24] utilizationCountIdleState 50
scalar OsgEarthNet.uav[24] utilizationFail 0
scalar OsgEarthNet.uav[24] simulationTime 259200
scalar OsgEarthNet.uav[25] utilizationSecMission 13837.618403794
scalar OsgEarthNet.uav[25] utilizationSecMaintenance 12502.821324174
scalar OsgEarthNet.uav[25] utilizationSecCharge 95980
scalar OsgEarthNet.uav[25] utilizationSecIdle 136879.55927203
scalar OsgEarthNet.uav[25] utilizationEnergyMission 67329.342529297
scalar OsgEarthNet.uav[25] utilizationEnergyMaintenance 57720.637546539
scalar OsgEarthNet.uav[25] utilizationEnergyCharge 124873.83496094
scalar OsgEarthNet.uav[25] utilizationEnergyOverdrawMission 0
scalar OsgEarthNet.uav[25] utilizationEnergyOverdrawMaintenance 0
scalar OsgEarthNet.uav[25] utilizationCountMissions 29
scalar OsgEarthNet.uav[25] utilizationCountManeuversMission 472
scalar OsgEarthNet.uav[25] utilizationCountManeuversMaintenance 58
scalar OsgEarthNet.uav[25] utilizationCountChargeState 29
scalar OsgEarthNet.uav[25] utilizationCountOverdrawnAfterMission 0
scalar OsgEarthNet.uav[25] utilizationCountIdleState 30
scalar OsgEarthNet.uav[25] utilizationFail 0
scalar OsgEarthNet.uav[25] simulationTime 259200
scalar OsgEarthNet.uav[26] utilizationSecMission 23100.679481548
scalar OsgEarthNet.uav[26] utilizationSecMaintenance 20003.987963485
scalar OsgEarthNet.uav[26] utilizationSecCharge 156120
scalar OsgEarthNet.uav[26] utilizationSecIdle 59975.331554967
scalar OsgEarthNet.uav[26] utilizationEnergyMission 112486.21401215
scalar OsgEarthNet.uav[26] utilizationEnergyMaintenance 92124.36574173
scalar OsgEarthNet.uav[26] utilizationEnergyCharge 203596.25
scalar OsgEarthNet.uav[26] utilizationEnergyOverdrawMission 0
scalar OsgEarthNet.uav[26] utilizationEnergyOverdrawMaintenance 0
scalar OsgEarthNet.uav[26] utilizationCountMissions 47
scalar OsgEarthNet.uav[26] utilizationCountManeuversMission 638
scalar OsgEarthNet.uav[26] utilizationCountManeuversMaintenance 94
scalar OsgEarthNet.uav[26] utilizationCountChargeState 47
scalar OsgEarthNet.uav[26] utilizationCountOverdrawnAfterMission 0
scalar OsgEarthNet.uav[26] utilizationCountIdleState 48
scalar OsgEarthNet.uav[26] utilizationFail 0
scalar OsgEarthNet.uav[26] simulationTime 259200
scalar OsgEarthNet.uav[27] utilizationSecMission 25817.626445913
scalar OsgEarthNet.uav[27] utilizationSecMaintenance 23680.372046704
scalar OsgEarthNet.uav[27] utilizationSecCharge 178630
scalar OsgEarthNet.uav[27] utilizationSecIdle 31072.000507383
scalar OsgEarthNet.uav[27] utilizationEnergyMission 125461.54560368
scalar OsgEarthNet.uav[27] utilizationEnergyMaintenance 109738.38680649
scalar OsgEarthNet.uav[27] utilizationEnergyCharge 232844.48876953
scalar OsgEarthNet.uav[27] utilizationEnergyOverdrawMission 0
scalar OsgEarthNet.uav[27] utilizationEnergyOverdrawMaintenance 91.480819702148
scalar OsgEarthNet.uav[27] utilizationCountMissions 54
scalar OsgEarthNet.uav[27] utilizationCountManeuversMission 860
scalar OsgEarthNet.uav[27] utilizationCountManeuversMaintenance 109
scalar OsgEarthNet.uav[27] utilizationCountChargeState 54
scalar OsgEarthNet.uav[27] utilizationCountOverdrawnAfterMission 1
scalar OsgEarthNet.uav[27] utilizationCountIdleState 55
scalar OsgEarthNet.uav[27] utilizationFail 0
scalar OsgEarthNet.uav[27] simulationTime 259200
scalar OsgEarthNet.uav[28] utilizationSecMission 15000.722813996
scalar OsgEarthNet.uav[28] utilizationSecMaintenance 11749.445421624
scalar OsgEarthNet.uav[28] utilizationSecCharge 96840
scalar OsgEarthNet.uav[28] utilizationSecIdle 135609.83076438
scalar OsgEarthNet.uav[28] utilizationEnergyMission 72714.128555298
scalar OsgEarthNet.uav[28] utilizationEnergyMaintenance 53958.824714661
scalar OsgEarthNet.uav[28] utilizationEnergyCharge 126354.07861328
scalar OsgEarthNet.uav[28] utilizationEnergyOverdrawMission 0
scalar OsgEarthNet.uav[28] utilizationEnergyOverdrawMaintenance 0
scalar OsgEarthNet.uav[28] utilizationCountMissions 29
scalar OsgEarthNet.uav[28] utilizationCountManeuversMission 437
scalar OsgEarthNet.uav[28] utilizationCountManeuversMaintenance 58
scalar OsgEarthNet.uav[28] utilizationCountChargeState 29
scalar OsgEarthNet.uav[28] utilizationCountOverdrawnAfterMission 0
scalar OsgEarthNet.uav[28] utilizationCountIdleState 30
scalar OsgEarthNet.uav[28] utilizationFail 0
scalar OsgEarthNet.uav[28] simulationTime 259200
scalar OsgEarthNet.uav[29] utilizationSecMission 280
scalar OsgEarthNet.uav[29] utilizationSecMaintenance 544.03331269068
scalar OsgEarthNet.uav[29] utilizationSecCharge 3350
scalar OsgEarthNet.uav[29] utilizationSecIdle 255025.96568731
scalar OsgEarthNet.uav[29] utilizationEnergyMission 1400.5741539001
scalar OsgEarthNet.uav[29] utilizationEnergyMaintenance 2789.798740387
scalar OsgEarthNet.uav[29] utilizationEnergyCharge 4323.1977539062
scalar OsgEarthNet.uav[29] utilizationEnergyOverdrawMission 0
scalar OsgEarthNet.uav[29] utilizationEnergyOverdrawMaintenance 0
scalar OsgEarthNet.uav[29] utilizationCountMissions 1
scalar OsgEarthNet.uav[29] utilizationCountManeuversMission 14
scalar OsgEarthNet.uav[29] utilizationCountManeuversMaintenance 2
scalar OsgEarthNet.uav[29] utilizationCountChargeState 1
scalar OsgEarthNet.uav[29] utilizationCountOverdrawnAfterMission 0
scalar OsgEarthNet.uav[29] utilizationCountIdleState 2
scalar OsgEarthNet.uav[29] utilizationFail 0
scalar OsgEarthNet.uav[29] simulationTime 259200
scalar OsgEarthNet.uav[30] utilizationSecMission 25085.392555798
scalar OsgEarthNet.uav[30] utilizationSecMaintenance 18613.915642824
scalar OsgEarthNet.uav[30] utilizationSecCharge 157298.67980138
scalar OsgEarthNet.uav[30] utilizationSecIdle 58202.011
scalar OsgEarthNet.uav[30] utilizationEnergyMission 120598.20450974
scalar OsgEarthNet.uav[30] utilizationEnergyMaintenance 87255.504169464
scalar OsgEarthNet.uav[30] utilizationEnergyCharge 205733.20678711
scalar OsgEarthNet.uav[30] utilizationEnergyOverdrawMission 0
scalar OsgEarthNet.uav[30] utilizationEnergyOverdrawMaintenance 0
scalar OsgEarthNet.uav[30] utilizationCountMissions 48
scalar OsgEarthNet.uav[30] utilizationCountManeuversMission 727
scalar OsgEarthNet.uav[30] utilizationCountManeuversMaintenance 96
scalar OsgEarthNet.uav[30] utilizationCountChargeState 48
scalar OsgEarthNet.uav[30] utilizationCountOverdrawnAfterMission 0
scalar OsgEarthNet.uav[30] utilizationCountIdleState 48
scalar OsgEarthNet.uav[30] utilizationFail 0
scalar OsgEarthNet.uav[30] simulationTime 259200
scalar OsgEarthNet.uav[31] utilizationSecMission 25234.176469001
scalar OsgEarthNet.uav[31] utilizationSecMaintenance 23985.337784625
scalar OsgEarthNet.uav[31] utilizationSecCharge 173887.45284167
scalar OsgEarthNet.uav[31] utilizationSecIdle 36093.031904706
scalar OsgEarthNet.uav[31] utilizationEnergyMission 122293.14361191
scalar OsgEarthNet.uav[31] utilizationEnergyMaintenance 111062.67185593
scalar OsgEarthNet.uav[31] utilizationEnergyCharge 227575.81420898
scalar OsgEarthNet.uav[31] utilizationEnergyOverdrawMission 0
scalar OsgEarthNet.uav[31] utilizationEnergyOverdrawMaintenance 0
scalar OsgEarthNet.uav[31] utilizationCountMissions 53
scalar OsgEarthNet.uav[31] utilizationCountManeuversMission 755
scalar OsgEarthNet.uav[31] utilizationCountManeuversMaintenance 106
scalar OsgEarthNet.uav[31] utilizationCountChargeState 53
scalar OsgEarthNet.uav[31] utilizationCountOverdrawnAfterMission 0
scalar OsgEarthNet.uav[31] utilizationCountIdleState 53
scalar OsgEarthNet.uav[31] utilizationFail 0
scalar OsgEarthNet.uav[31] simulationTime 259200
scalar OsgEarthNet.uav[32] utilizationSecMission 26583.185865684
scalar OsgEarthNet.uav[32] utilizationSecMaintenance 24985.48000174
scalar OsgEarthNet.uav[32] utilizationSecCharge 184069.33313258
scalar OsgEarthNet.uav[32] utilizationSecIdle 23562
scalar OsgEarthNet.uav[32] utilizationEnergyMission 129378.47245708
scalar OsgEarthNet.uav[32] utilizationEnergyMaintenance 115505.66569901
scalar OsgEarthNet.uav[32] utilizationEnergyCharge 240529.91870117
scalar OsgEarthNet.uav[32] utilizationEnergyOverdrawMission 0
scalar OsgEarthNet.uav[32] utilizationEnergyOverdrawMaintenance 0
scalar OsgEarthNet.uav[32] utilizationCountMissions 56
scalar OsgEarthNet.uav[32] utilizationCountManeuversMission 829
scalar OsgEarthNet.uav[32] utilizationCountManeuversMaintenance 111
scalar OsgEarthNet.uav[32] utilizationCountChargeState 56
scalar OsgEarthNet.uav[32] utilizationCountOverdrawnAfterMission 0
scalar OsgEarthNet.uav[32] utilizationCountIdleState 56
scalar OsgEarthNet.uav[32] utilizationFail 0
scalar OsgEarthNet.uav[32] simulationTime 259200
scalar OsgEarthNet.uav[33] utilizationSecMission 25529.245761763
scalar OsgEarthNet.uav[33] utilizationSecMaintenance 22492.557607137
scalar OsgEarthNet.uav[33] utilizationSecCharge 174606.1876311
scalar OsgEarthNet.uav[33] utilizationSecIdle 36572.008
scalar OsgEarthNet.uav[33] utilizationEnergyMission 125293.40934753
scalar OsgEarthNet.uav[33] utilizationEnergyMaintenance 104584.98610687
scalar OsgEarthNet.uav[33] utilizationEnergyCharge 229055.65185547
scalar OsgEarthNet.uav[33] utilizationEnergyOverdrawMission 0
scalar OsgEarthNet.uav[33] utilizationEnergyOverdrawMaintenance 0
scalar OsgEarthNet.uav[33] utilizationCountMissions 53
scalar OsgEarthNet.uav[33] utilizationCountManeuversMission 854
scalar OsgEarthNet.uav[33] utilizationCountManeuversMaintenance 106
scalar OsgEarthNet.uav[33] utilizationCountChargeState 53
scalar OsgEarthNet.uav[33] utilizationCountOverdrawnAfterMission 0
scalar OsgEarthNet.uav[33] utilizationCountIdleState 53
scalar OsgEarthNet.uav[33] utilizationFail 0
scalar OsgEarthNet.uav[33] simulationTime 259200
scalar OsgEarthNet.uav[34] utilizationSecMission 21315.257600798
scalar OsgEarthNet.uav[34] utilizationSecMaintenance 21967.699222099
scalar OsgEarthNet.uav[34] utilizationSecCharge 154533.37599407
scalar OsgEarthNet.uav[34] utilizationSecIdle 61383.666183032
scalar OsgEarthNet.uav[34] utilizationEnergyMission 102307.92509842
scalar OsgEarthNet.uav[34] utilizationEnergyMaintenance 101182.56522751
scalar OsgEarthNet.uav[34] utilizationEnergyCharge 202768.76513672
scalar OsgEarthNet.uav[34] utilizationEnergyOverdrawMission 0
scalar OsgEarthNet.uav[34] utilizationEnergyOverdrawMaintenance 0
scalar OsgEarthNet.uav[34] utilizationCountMissions 47
scalar OsgEarthNet.uav[34] utilizationCountManeuversMission 654
scalar OsgEarthNet.uav[34] utilizationCountManeuversMaintenance 94
scalar OsgEarthNet.uav[34] utilizationCountChargeState 47
scalar OsgEarthNet.uav[34] utilizationCountOverdrawnAfterMission 0
scalar OsgEarthNet.uav[34] utilizationCountIdleState 47
scalar OsgEarthNet.uav[34] utilizationFail 0
scalar OsgEarthNet.uav[34] simulationTime 259200
scalar OsgEarthNet.uav[35] utilizationSecMission 26226.276444035
scalar OsgEarthNet.uav[35] utilizationSecMaintenance 25347.670067998
scalar OsgEarthNet.uav[35] utilizationSecCharge 186064.05248797
scalar OsgEarthNet.uav[35] utilizationSecIdle 21562
scalar OsgEarthNet.uav[35] utilizationEnergyMission 126778.25029373
scalar OsgEarthNet.uav[35] utilizationEnergyMaintenance 117149.88508606
scalar OsgEarthNet.uav[35] utilizationEnergyCharge 243704.46289062
scalar OsgEarthNet.uav[35] utilizationEnergyOverdrawMission 0
scalar OsgEarthNet.uav[35] utilizationEnergyOverdrawMaintenance 0
scalar OsgEarthNet.uav[35] utilizationCountMissions 56
scalar OsgEarthNet.uav[35] utilizationCountManeuversMission 822
scalar OsgEarthNet.uav[35] utilizationCountManeuversMaintenance 112
scalar OsgEarthNet.uav[35] utilizationCountChargeState 56
scalar OsgEarthNet.uav[35] utilizationCountOverdrawnAfterMission 0
scalar OsgEarthNet.uav[35] utilizationCountIdleState 56
scalar OsgEarthNet.uav[35] utilizationFail 0
scalar OsgEarthNet.uav[35] simulationTime 259200
scalar OsgEarthNet.uav[36] utilizationSecMission 25540.112199296
scalar OsgEarthNet.uav[36] utilizationSecMaintenance 25657.881800704
scalar OsgEarthNet.uav[36] utilizationSecCharge 183390
scalar OsgEarthNet.uav[36] utilizationSecIdle 24612.005
scalar OsgEarthNet.uav[36] utilizationEnergyMission 123565.8801841
scalar OsgEarthNet.uav[36] utilizationEnergyMaintenance 120269.03654861
scalar OsgEarthNet.uav[36] utilizationEnergyCharge 239516.32666016
scalar OsgEarthNet.uav[36] utilizationEnergyOverdrawMission 0
scalar OsgEarthNet.uav[36] utilizationEnergyOverdrawMaintenance 0
scalar OsgEarthNet.uav[36] utilizationCountMissions 55
scalar OsgEarthNet.uav[36] utilizationCountManeuversMission 746
scalar OsgEarthNet.uav[36] utilizationCountManeuversMaintenance 111
scalar OsgEarthNet.uav[36] utilizationCountChargeState 55
scalar OsgEarthNet.uav[36] utilizationCountOverdrawnAfterMission 0
scalar OsgEarthNet.uav[36] utilizationCountIdleState 56
scalar OsgEarthNet.uav[36] utilizationFail 0
scalar OsgEarthNet.uav[36] simulationTime 259200
scalar OsgEarthNet.uav[37] utilizationSecMission 26721.030374567
scalar OsgEarthNet.uav[37] utilizationSecMaintenance 25009.051394232
scalar OsgEarthNet.uav[37] utilizationSecCharge 186767.9172312
scalar OsgEarthNet.uav[37] utilizationSecIdle 20702
scalar OsgEarthNet.uav[37] utilizationEnergyMission 129459.98024368
scalar OsgEarthNet.uav[37] utilizationEnergyMaintenance 116973.09745026
scalar OsgEarthNet.uav[37] utilizationEnergyCharge 243716.69372559
scalar OsgEarthNet.uav[37] utilizationEnergyOverdrawMission 0
scalar OsgEarthNet.uav[37] utilizationEnergyOverdrawMaintenance 0
scalar OsgEarthNet.uav[37] utilizationCountMissions 57
scalar OsgEarthNet.uav[37] utilizationCountManeuversMission 840
scalar OsgEarthNet.uav[37] utilizationCountManeuversMaintenance 114
scalar OsgEarthNet.uav[37] utilizationCountChargeState 57
scalar OsgEarthNet.uav[37] utilizationCountOverdrawnAfterMission 0
scalar OsgEarthNet.uav[37] utilizationCountIdleState 57
scalar OsgEarthNet.uav[37] utilizationFail 0
scalar OsgEarthNet.uav[37] simulationTime 259200
scalar OsgEarthNet.uav[38] utilizationSecMission 26553.662470335
scalar OsgEarthNet.uav[38] utilizationSecMaintenance 24934.336529665
scalar OsgEarthNet.uav[38] utilizationSecCharge 187670
scalar OsgEarthNet.uav[38] utilizationSecIdle 20042
scalar OsgEarthNet.uav[38] utilizationEnergyMission 128721.37081852
scalar OsgEarthNet.uav[38] utilizationEnergyMaintenance 116183.44429016
scalar OsgEarthNet.uav[38] utilizationEnergyCharge 245337.03686523
scalar OsgEarthNet.uav[38] utilizationEnergyOverdrawMission 0
scalar OsgEarthNet.uav[38] utilizationEnergyOverdrawMaintenance 0
scalar OsgEarthNet.uav[38] utilizationCountMissions 56
scalar OsgEarthNet.uav[38] utilizationCountManeuversMission 876
scalar OsgEarthNet.uav[38] utilizationCountManeuversMaintenance 113
scalar OsgEarthNet.uav[38] utilizationCountChargeState 56
scalar OsgEarthNet.uav[38] utilizationCountOverdrawnAfterMission 0
scalar OsgEarthNet.uav[38] utilizationCountIdleState 57
scalar OsgEarthNet.uav[38] utilizationFail 0
scalar OsgEarthNet.uav[38] simulationTime 259200
scalar OsgEarthNet.uav[39] utilizationSecMission 19716.019823749
scalar OsgEarthNet.uav[39] utilizationSecMaintenance 19295.681211012
scalar OsgEarthNet.uav[39] utilizationSecCharge 141250
scalar OsgEarthNet.uav[39] utilizationSecIdle 78938.297965239
scalar OsgEarthNet.uav[39] utilizationEnergyMission 94571.431503296
scalar OsgEarthNet.uav[39] utilizationEnergyMaintenance 90887.280761719
scalar OsgEarthNet.uav[39] utilizationEnergyCharge 185547.95898438
scalar OsgEarthNet.uav[39] utilizationEnergyOverdrawMission 0
scalar OsgEarthNet.uav[39] utilizationEnergyOverdrawMaintenance 0
scalar OsgEarthNet.uav[39] utilizationCountMissions 42
scalar OsgEarthNet.uav[39] utilizationCountManeuversMission 542
scalar OsgEarthNet.uav[39] utilizationCountManeuversMaintenance 84
scalar OsgEarthNet.uav[39] utilizationCountChargeState 42
scalar OsgEarthNet.uav[39] utilizationCountOverdrawnAfterMission 0
scalar OsgEarthNet.uav[39] utilizationCountIdleState 43
scalar OsgEarthNet.uav[39] utilizationFail 0
scalar OsgEarthNet.uav[39] simulationTime 259200
scalar OsgEarthNet.uav[40] utilizationSecMission 25262.58220427
scalar OsgEarthNet.uav[40] utilizationSecMaintenance 26355.41679573
scalar OsgEarthNet.uav[40] utilizationSecCharge 185450
scalar OsgEarthNet.uav[40] utilizationSecIdle 22132
scalar OsgEarthNet.uav[40] utilizationEnergyMission 122068.11582549
scalar OsgEarthNet.uav[40] utilizationEnergyMaintenance 123632.85153198
scalar OsgEarthNet.uav[40] utilizationEnergyCharge 241825.4296875
scalar OsgEarthNet.uav[40] utilizationEnergyOverdrawMission 0
scalar OsgEarthNet.uav[40] utilizationEnergyOverdrawMaintenance 168.86357116699
scalar OsgEarthNet.uav[40] utilizationCountMissions 56
scalar OsgEarthNet.uav[40] utilizationCountManeuversMission 796
scalar OsgEarthNet.uav[40] utilizationCountManeuversMaintenance 112
scalar OsgEarthNet.uav[40] utilizationCountChargeState 56
scalar OsgEarthNet.uav[40] utilizationCountOverdrawnAfterMission 1
scalar OsgEarthNet.uav[40] utilizationCountIdleState 57
scalar OsgEarthNet.uav[40] utilizationFail 0
scalar OsgEarthNet.uav[40] simulationTime 259200
scalar OsgEarthNet.uav[41] utilizationSecMission 17607.611797169
scalar OsgEarthNet.uav[41] utilizationSecMaintenance 14913.026187315
scalar OsgEarthNet.uav[41] utilizationSecCharge 115461.95411474
scalar OsgEarthNet.uav[41] utilizationSecIdle 111217.40690078
scalar OsgEarthNet.uav[41] utilizationEnergyMission 86202.493694305
scalar OsgEarthNet.uav[41] utilizationEnergyMaintenance 69596.672325134
scalar OsgEarthNet.uav[41] utilizationEnergyCharge 151829.91308594
scalar OsgEarthNet.uav[41] utilizationEnergyOverdrawMission 0
scalar OsgEarthNet.uav[41] utilizationEnergyOverdrawMaintenance 0
scalar OsgEarthNet.uav[41] utilizationCountMissions 35
scalar OsgEarthNet.uav[41] utilizationCountManeuversMission 549
scalar OsgEarthNet.uav[41] utilizationCountManeuversMaintenance 70
scalar OsgEarthNet.uav[41] utilizationCountChargeState 35
scalar OsgEarthNet.uav[41] utilizationCountOverdrawnAfterMission 0
scalar OsgEarthNet.uav[41] utilizationCountIdleState 35
scalar OsgEarthNet.uav[41] utilizationFail 0
scalar OsgEarthNet.uav[41] simulationTime 259200
scalar OsgEarthNet.uav[42] utilizationSecMission 25918.766737853
scalar OsgEarthNet.uav[42] utilizationSecMaintenance 25393.029871929
scalar OsgEarthNet.uav[42] utilizationSecCharge 185276.20139022
scalar OsgEarthNet.uav[42] utilizationSecIdle 22612.001
scalar OsgEarthNet.uav[42] utilizationEnergyMission 125419.49602127
scalar OsgEarthNet.uav[42] utilizationEnergyMaintenance 118243.49557877
scalar OsgEarthNet.uav[42] utilizationEnergyCharge 242348.85766602
scalar OsgEarthNet.uav[42] utilizationEnergyOverdrawMission 0
scalar OsgEarthNet.uav[42] utilizationEnergyOverdrawMaintenance 269.58721923828
scalar OsgEarthNet.uav[42] utilizationCountMissions 56
scalar OsgEarthNet.uav[42] utilizationCountManeuversMission 870
scalar OsgEarthNet.uav[42] utilizationCountManeuversMaintenance 112
scalar OsgEarthNet.uav[42] utilizationCountChargeState 56
scalar OsgEarthNet.uav[42] utilizationCountOverdrawnAfterMission 1
scalar OsgEarthNet.uav[42] utilizationCountIdleState 56
scalar OsgEarthNet.uav[42] utilizationFail 0
scalar OsgEarthNet.uav[42] simulationTime 259200
scalar OsgEarthNet.uav[43] utilizationSecMission 6073.3644289168
scalar OsgEarthNet.uav[43] utilizationSecMaintenance 6276.5773919074
scalar OsgEarthNet.uav[43] utilizationSecCharge 40911.998299714
scalar OsgEarthNet.uav[43] utilizationSecIdle 205938.05887946
scalar OsgEarthNet.uav[43] utilizationEnergyMission 29559.866889954
scalar OsgEarthNet.uav[43] utilizationEnergyMaintenance 29053.592903137
scalar OsgEarthNet.uav[43] utilizationEnergyCharge 54147.807128906
scalar OsgEarthNet.uav[43] utilizationEnergyOverdrawMission 0
scalar OsgEarthNet.uav[43] utilizationEnergyOverdrawMaintenance 0
scalar OsgEarthNet.uav[43] utilizationCountMissions 13
scalar OsgEarthNet.uav[43] utilizationCountManeuversMission 191
scalar OsgEarthNet.uav[43] utilizationCountManeuversMaintenance 26
scalar OsgEarthNet.uav[43] utilizationCountChargeState 13
scalar OsgEarthNet.uav[43] utilizationCountOverdrawnAfterMission 0
scalar OsgEarthNet.uav[43] utilizationCountIdleState 13
scalar OsgEarthNet.uav[43] utilizationFail 0
scalar OsgEarthNet.uav[43] simulationTime 259200
scalar OsgEarthNet.uav[44] utilizationSecMission 26344.576230708
scalar OsgEarthNet.uav[44] utilizationSecMaintenance 24568.134255889
scalar OsgEarthNet.uav[44] utilizationSecCharge 184505.2875134
scalar OsgEarthNet.uav[44] utilizationSecIdle 23782.001
scalar OsgEarthNet.uav[44] utilizationEnergyMission 126785.85756683
scalar OsgEarthNet.uav[44] utilizationEnergyMaintenance 114750.39690399
scalar OsgEarthNet.uav[44] utilizationEnergyCharge 242107.36181641
scalar OsgEarthNet.uav[44] utilizationEnergyOverdrawMission 0
scalar OsgEarthNet.uav[44] utilizationEnergyOverdrawMaintenance 0
scalar OsgEarthNet.uav[44] utilizationCountMissions 55
scalar OsgEarthNet.uav[44] utilizationCountManeuversMission 777
scalar OsgEarthNet.uav[44] utilizationCountManeuversMaintenance 110
scalar OsgEarthNet.uav[44] utilizationCountChargeState 55
scalar OsgEarthNet.uav[44] utilizationCountOverdrawnAfterMission 0
scalar OsgEarthNet.uav[44] utilizationCountIdleState 55
scalar OsgEarthNet.uav[44] utilizationFail 0
scalar OsgEarthNet.uav[44] simulationTime 259200
scalar OsgEarthNet.uav[45] utilizationSecMission 23484.174845054
scalar OsgEarthNet.uav[45] utilizationSecMaintenance 23724.537013249
scalar OsgEarthNet.uav[45] utilizationSecCharge 169229.61409011
scalar OsgEarthNet.uav[45] utilizationSecIdle 42761.673051586
scalar OsgEarthNet.uav[45] utilizationEnergyMission 114294.66700745
scalar OsgEarthNet.uav[45] utilizationEnergyMaintenance 110868.16345978
scalar OsgEarthNet.uav[45] utilizationEnergyCharge 221830.75439453
scalar OsgEarthNet.uav[45] utilizationEnergyOverdrawMission 0
scalar OsgEarthNet.uav[45] utilizationEnergyOverdrawMaintenance 0
scalar OsgEarthNet.uav[45] utilizationCountMissions 51
scalar OsgEarthNet.uav[45] utilizationCountManeuversMission 721
scalar OsgEarthNet.uav[45] utilizationCountManeuversMaintenance 102
scalar OsgEarthNet.uav[45] utilizationCountChargeState 51
scalar OsgEarthNet.uav[45] utilizationCountOverdrawnAfterMission 0
scalar OsgEarthNet.uav[45] utilizationCountIdleState 51
scalar OsgEarthNet.uav[45] utilizationFail 0
scalar OsgEarthNet.uav[45] simulationTime 259200
scalar OsgEarthNet.uav[46] utilizationSecMission 1947.1331087133
scalar OsgEarthNet.uav[46] utilizationSecMaintenance 1613.5943642952
scalar OsgEarthNet.uav[46] utilizationSecCharge 11547.381881899
scalar OsgEarthNet.uav[46] utilizationSecIdle 244091.88964509
scalar OsgEarthNet.uav[46] utilizationEnergyMission 8981.6155815124
scalar OsgEarthNet.uav[46] utilizationEnergyMaintenance 7470.1742858887
scalar OsgEarthNet.uav[46] utilizationEnergyCharge 15895.892333984
scalar OsgEarthNet.uav[46] utilizationEnergyOverdrawMission 0
scalar OsgEarthNet.uav[46] utilizationEnergyOverdrawMaintenance 0
scalar OsgEarthNet.uav[46] utilizationCountMissions 4
scalar OsgEarthNet.uav[46] utilizationCountManeuversMission 52
scalar OsgEarthNet.uav[46] utilizationCountManeuversMaintenance 8
scalar OsgEarthNet.uav[46] utilizationCountChargeState 4
scalar OsgEarthNet.uav[46] utilizationCountOverdrawnAfterMission 0
scalar OsgEarthNet.uav[46] utilizationCountIdleState 4
scalar OsgEarthNet.uav[46] utilizationFail 0
scalar OsgEarthNet.uav[46] simulationTime 259200
scalar OsgEarthNet.uav[47] utilizationSecMission 20585.645298566
scalar OsgEarthNet.uav[47] utilizationSecMaintenance 17597.648351476
scalar OsgEarthNet.uav[47] utilizationSecCharge 137944.69534996
scalar OsgEarthNet.uav[47] utilizationSecIdle 83072.01
scalar OsgEarthNet.uav[47] utilizationEnergyMission 98261.39415741
scalar OsgEarthNet.uav[47] utilizationEnergyMaintenance 82505.318134308
scalar OsgEarthNet.uav[47] utilizationEnergyCharge 180617.42773438
scalar OsgEarthNet.uav[47] utilizationEnergyOverdrawMission 0
scalar OsgEarthNet.uav[47] utilizationEnergyOverdrawMaintenance 0
scalar OsgEarthNet.uav[47] utilizationCountMissions 42
scalar OsgEarthNet.uav[47] utilizationCountManeuversMission 630
scalar OsgEarthNet.uav[47] utilizationCountManeuversMaintenance 84
scalar OsgEarthNet.uav[47] utilizationCountChargeState 42
scalar OsgEarthNet.uav[47] utilizationCountOverdrawnAfterMission 0
scalar OsgEarthNet.uav[47] utilizationCountIdleState 42
scalar OsgEarthNet.uav[47] utilizationFail 0
scalar OsgEarthNet.uav[47] simulationTime 259200
scalar OsgEarthNet.uav[48] utilizationSecMission 21511.881931385
scalar OsgEarthNet.uav[48] utilizationSecMaintenance 18127.669659913
scalar OsgEarthNet.uav[48] utilizationSecCharge 143300
scalar OsgEarthNet.uav[48] utilizationSecIdle 76260.447408701
scalar OsgEarthNet.uav[48] utilizationEnergyMission 104596.33999252
scalar OsgEarthNet.uav[48] utilizationEnergyMaintenance 83385.21257782
scalar OsgEarthNet.uav[48] utilizationEnergyCharge 187418.72827148
scalar OsgEarthNet.uav[48] utilizationEnergyOverdrawMission 0
scalar OsgEarthNet.uav[48] utilizationEnergyOverdrawMaintenance 0
scalar OsgEarthNet.uav[48] utilizationCountMissions 43
scalar OsgEarthNet.uav[48] utilizationCountManeuversMission 662
scalar OsgEarthNet.uav[48] utilizationCountManeuversMaintenance 86
scalar OsgEarthNet.uav[48] utilizationCountChargeState 43
scalar OsgEarthNet.uav[48] utilizationCountOverdrawnAfterMission 0
scalar OsgEarthNet.uav[48] utilizationCountIdleState 43
scalar OsgEarthNet.uav[48] utilizationFail 0
scalar OsgEarthNet.uav[48] simulationTime 259200
scalar OsgEarthNet.uav[49] utilizationSecMission 3734.8531190218
scalar OsgEarthNet.uav[49] utilizationSecMaintenance 3750.7905837037
scalar OsgEarthNet.uav[49] utilizationSecCharge 25855.651277401
scalar OsgEarthNet.uav[49] utilizationSecIdle 225858.70401987
scalar OsgEarthNet.uav[49] utilizationEnergyMission 18271.296863556
scalar OsgEarthNet.uav[49] utilizationEnergyMaintenance 16830.933635712
scalar OsgEarthNet.uav[49] utilizationEnergyCharge 35085.907958984
scalar OsgEarthNet.uav[49] utilizationEnergyOverdrawMission 0
scalar OsgEarthNet.uav[49] utilizationEnergyOverdrawMaintenance 0
scalar OsgEarthNet.uav[49] utilizationCountMissions 8
scalar OsgEarthNet.uav[49] utilizationCountManeuversMission 101
scalar OsgEarthNet.uav[49] utilizationCountManeuversMaintenance 16
scalar OsgEarthNet.uav[49] utilizationCountChargeState 8
scalar OsgEarthNet.uav[49] utilizationCountOverdrawnAfterMission 0
scalar OsgEarthNet.uav[49] utilizationCountIdleState 8
scalar OsgEarthNet.uav[49] utilizationFail 0
scalar OsgEarthNet.uav[49] simulationTime 259200
scalar OsgEarthNet.uav[50] utilizationSecMission 27274.989768783
scalar OsgEarthNet.uav[50] utilizationSecMaintenance 23165.619248206
scalar OsgEarthNet.uav[50] utilizationSecCharge 184267.38998301
scalar OsgEarthNet.uav[50] utilizationSecIdle 24492
scalar OsgEarthNet.uav[50] utilizationEnergyMission 132809.7034874
scalar OsgEarthNet.uav[50] utilizationEnergyMaintenance 107925.51563263
scalar OsgEarthNet.uav[50] utilizationEnergyCharge 241691.14501953
scalar OsgEarthNet.uav[50] utilizationEnergyOverdrawMission 0
scalar OsgEarthNet.uav[50] utilizationEnergyOverdrawMaintenance 0
scalar OsgEarthNet.uav[50] utilizationCountMissions 56
scalar OsgEarthNet.uav[50] utilizationCountManeuversMission 899
scalar OsgEarthNet.uav[50] utilizationCountManeuversMaintenance 111
scalar OsgEarthNet.uav[50] utilizationCountChargeState 56
scalar OsgEarthNet.uav[50] utilizationCountOverdrawnAfterMission 0
scalar OsgEarthNet.uav[50] utilizationCountIdleState 56
scalar OsgEarthNet.uav[50] utilizationFail 0
scalar OsgEarthNet.uav[50] simulationTime 259200
scalar OsgEarthNet.uav[51] utilizationSecMission 25376.828280659
scalar OsgEarthNet.uav[51] utilizationSecMaintenance 24322.207733006
scalar OsgEarthNet.uav[51] utilizationSecCharge 176580
scalar OsgEarthNet.uav[51] utilizationSecIdle 32920.962986334
scalar OsgEarthNet.uav[51] utilizationEnergyMission 121152.14341206
scalar OsgEarthNet.uav[51] utilizationEnergyMaintenance 110936.99773407
scalar OsgEarthNet.uav[51] utilizationEnergyCharge 230303.83251953
scalar OsgEarthNet.uav[51] utilizationEnergyOverdrawMission 0
scalar OsgEarthNet.uav[51] utilizationEnergyOverdrawMaintenance 0
scalar OsgEarthNet.uav[51] utilizationCountMissions 53
scalar OsgEarthNet.uav[51] utilizationCountManeuversMission 746
scalar OsgEarthNet.uav[51] utilizationCountManeuversMaintenance 107
scalar OsgEarthNet.uav[51] utilizationCountChargeState 53
scalar OsgEarthNet.uav[51] utilizationCountOverdrawnAfterMission 0
scalar OsgEarthNet.uav[51] utilizationCountIdleState 54
scalar OsgEarthNet.uav[51] utilizationFail 0
scalar OsgEarthNet.uav[51] simulationTime 259200
scalar OsgEarthNet.uav[52] utilizationSecMission 18548.009452228
scalar OsgEarthNet.uav[52] utilizationSecMaintenance 18419.982547772
scalar OsgEarthNet.uav[52] utilizationSecCharge 135200
scalar OsgEarthNet.uav[52] utilizationSecIdle 87032.007
scalar OsgEarthNet.uav[52] utilizationEnergyMission 89599.302089691
scalar OsgEarthNet.uav[52] utilizationEnergyMaintenance 85757.340696845
scalar OsgEarthNet.uav[52] utilizationEnergyCharge 176129.91503906
scalar OsgEarthNet.uav[52] utilizationEnergyOverdrawMission 0
scalar OsgEarthNet.uav[52] utilizationEnergyOverdrawMaintenance 0
scalar OsgEarthNet.uav[52] utilizationCountMissions 41
scalar OsgEarthNet.uav[52] utilizationCountManeuversMission 598
scalar OsgEarthNet.uav[52] utilizationCountManeuversMaintenance 83
scalar OsgEarthNet.uav[52] utilizationCountChargeState 41
scalar OsgEarthNet.uav[52] utilizationCountOverdrawnAfterMission 0
scalar OsgEarthNet.uav[52] utilizationCountIdleState 42
scalar OsgEarthNet.uav[52] utilizationFail 0
scalar OsgEarthNet.uav[52] simulationTime 259200
scalar OsgEarthNet.uav[53] utilizationSecMission 12185.387332935
scalar OsgEarthNet.uav[53] utilizationSecMaintenance 11322.328147091
scalar OsgEarthNet.uav[53] utilizationSecCharge 82652.596022274
scalar OsgEarthNet.uav[53] utilizationSecIdle 153039.6874977
scalar OsgEarthNet.uav[53] utilizationEnergyMission 58813.115825653
scalar OsgEarthNet.uav[53] utilizationEnergyMaintenance 52463.959228516
scalar OsgEarthNet.uav[53] utilizationEnergyCharge 109084.03930664
scalar OsgEarthNet.uav[53] utilizationEnergyOverdrawMission 0
scalar OsgEarthNet.uav[53] utilizationEnergyOverdrawMaintenance 0
scalar OsgEarthNet.uav[53] utilizationCountMissions 25
scalar OsgEarthNet.uav[53] utilizationCountManeuversMission 344
scalar OsgEarthNet.uav[53] utilizationCountManeuversMaintenance 50
scalar OsgEarthNet.uav[53] utilizationCountChargeState 25
scalar OsgEarthNet.uav[53] utilizationCountOverdrawnAfterMission 0
scalar OsgEarthNet.uav[53] utilizationCountIdleState 25
scalar OsgEarthNet.uav[53] utilizationFail 0
scalar OsgEarthNet.uav[53] simulationTime 259200
scalar OsgEarthNet.uav[54] utilizationSecMission 19761.40415033
scalar OsgEarthNet.uav[54] utilizationSecMaintenance 17628.726382896
scalar OsgEarthNet.uav[54] utilizationSecCharge 134927.85946677
scalar OsgEarthNet.uav[54] utilizationSecIdle 86882.009
scalar OsgEarthNet.uav[54] utilizationEnergyMission 96320.543510437
scalar OsgEarthNet.uav[54] utilizationEnergyMaintenance 81245.116485596
scalar OsgEarthNet.uav[54] utilizationEnergyCharge 177430.02880859
scalar OsgEarthNet.uav[54] utilizationEnergyOverdrawMission 0
scalar OsgEarthNet.uav[54] utilizationEnergyOverdrawMaintenance 0
scalar OsgEarthNet.uav[54] utilizationCountMissions 41
scalar OsgEarthNet.uav[54] utilizationCountManeuversMission 620
scalar OsgEarthNet.uav[54] utilizationCountManeuversMaintenance 82
scalar OsgEarthNet.uav[54] utilizationCountChargeState 41
scalar OsgEarthNet.uav[54] utilizationCountOverdrawnAfterMission 0
scalar OsgEarthNet.uav[54] utilizationCountIdleState 40
scalar OsgEarthNet.uav[54] utilizationFail 0
scalar OsgEarthNet.uav[54] simulationTime 259200
scalar OsgEarthNet.uav[55] utilizationSecMission 27976.098794254
scalar OsgEarthNet.uav[55] utilizationSecMaintenance 21290.219288311
scalar OsgEarthNet.uav[55] utilizationSecCharge 174551.67891743
scalar OsgEarthNet.uav[55] utilizationSecIdle 35382.002
scalar OsgEarthNet.uav[55] utilizationEnergyMission 136531.65942383
scalar OsgEarthNet.uav[55] utilizationEnergyMaintenance 98542.043582916
scalar OsgEarthNet.uav[55] utilizationEnergyCharge 228886.05761719
scalar OsgEarthNet.uav[55] utilizationEnergyOverdrawMission 0
scalar OsgEarthNet.uav[55] utilizationEnergyOverdrawMaintenance 0
scalar OsgEarthNet.uav[55] utilizationCountMissions 53
scalar OsgEarthNet.uav[55] utilizationCountManeuversMission 860
scalar OsgEarthNet.uav[55] utilizationCountManeuversMaintenance 106
scalar OsgEarthNet.uav[55] utilizationCountChargeState 53
scalar OsgEarthNet.uav[55] utilizationCountOverdrawnAfterMission 0
scalar OsgEarthNet.uav[55] utilizationCountIdleState 53
scalar OsgEarthNet.uav[55] utilizationFail 0
scalar OsgEarthNet.uav[55] simulationTime 259200
scalar OsgEarthNet.uav[56] utilizationSecMission 18129.406835194
scalar OsgEarthNet.uav[56] utilizationSecMaintenance 16203.519820573
scalar OsgEarthNet.uav[56] utilizationSecCharge 122956.11808857
scalar OsgEarthNet.uav[56] utilizationSecIdle 101910.95425566
scalar OsgEarthNet.uav[56] utilizationEnergyMission 87593.237693787
scalar OsgEarthNet.uav[56] utilizationEnergyMaintenance 75040.512325287
scalar OsgEarthNet.uav[56] utilizationEnergyCharge 161455.59912109
scalar OsgEarthNet.uav[56] utilizationEnergyOverdrawMission 0
scalar OsgEarthNet.uav[56] utilizationEnergyOverdrawMaintenance 0
scalar OsgEarthNet.uav[56] utilizationCountMissions 37
scalar OsgEarthNet.uav[56] utilizationCountManeuversMission 555
scalar OsgEarthNet.uav[56] utilizationCountManeuversMaintenance 74
scalar OsgEarthNet.uav[56] utilizationCountChargeState 37
scalar OsgEarthNet.uav[56] utilizationCountOverdrawnAfterMission 0
scalar OsgEarthNet.uav[56] utilizationCountIdleState 35
scalar OsgEarthNet.uav[56] utilizationFail 0
scalar OsgEarthNet.uav[56] simulationTime 259200
scalar OsgEarthNet.uav[57] utilizationSecMission 20876.071374836
scalar OsgEarthNet.uav[57] utilizationSecMaintenance 19523.647633903
scalar OsgEarthNet.uav[57] utilizationSecCharge 148370
scalar OsgEarthNet.uav[57] utilizationSecIdle 70430.279991261
scalar OsgEarthNet.uav[57] utilizationEnergyMission 101243.8151474
scalar OsgEarthNet.uav[57] utilizationEnergyMaintenance 90728.28338623
scalar OsgEarthNet.uav[57] utilizationEnergyCharge 194563.08740234
scalar OsgEarthNet.uav[57] utilizationEnergyOverdrawMission 0
scalar OsgEarthNet.uav[57] utilizationEnergyOverdrawMaintenance 0
scalar OsgEarthNet.uav[57] utilizationCountMissions 45
scalar OsgEarthNet.uav[57] utilizationCountManeuversMission 747
scalar OsgEarthNet.uav[57] utilizationCountManeuversMaintenance 90
scalar OsgEarthNet.uav[57] utilizationCountChargeState 45
scalar OsgEarthNet.uav[57] utilizationCountOverdrawnAfterMission 0
scalar OsgEarthNet.uav[57] utilizationCountIdleState 42
scalar OsgEarthNet.uav[57] utilizationFail 0
scalar OsgEarthNet.uav[57] simulationTime 259200
scalar OsgEarthNet.uav[58] utilizationSecMission 16339.578862424
scalar OsgEarthNet.uav[58] utilizationSecMaintenance 17580.522462842
scalar OsgEarthNet.uav[58] utilizationSecCharge 124270
scalar OsgEarthNet.uav[58] utilizationSecIdle 101009.89767473
scalar OsgEarthNet.uav[58] utilizationEnergyMission 80786.341503143
scalar OsgEarthNet.uav[58] utilizationEnergyMaintenance 81887.833580017
scalar OsgEarthNet.uav[58] utilizationEnergyCharge 161471.82250977
scalar OsgEarthNet.uav[58] utilizationEnergyOverdrawMission 0
scalar OsgEarthNet.uav[58] utilizationEnergyOverdrawMaintenance 0
scalar OsgEarthNet.uav[58] utilizationCountMissions 38
scalar OsgEarthNet.uav[58] utilizationCountManeuversMission 551
scalar OsgEarthNet.uav[58] utilizationCountManeuversMaintenance 76
scalar OsgEarthNet.uav[58] utilizationCountChargeState 38
scalar OsgEarthNet.uav[58] utilizationCountOverdrawnAfterMission 0
scalar OsgEarthNet.uav[58] utilizationCountIdleState 35
scalar OsgEarthNet.uav[58] utilizationFail 0
scalar OsgEarthNet.uav[58] simulationTime 259200
scalar OsgEarthNet.uav[59] utilizationSecMission 22195.366268531
scalar OsgEarthNet.uav[59] utilizationSecMaintenance 23510.501897242
scalar OsgEarthNet.uav[59] utilizationSecCharge 164670
scalar OsgEarthNet.uav[59] utilizationSecIdle 48824.130834228
scalar OsgEarthNet.uav[59] utilizationEnergyMission 106338.4394722
scalar OsgEarthNet.uav[59] utilizationEnergyMaintenance 108386.9079628
scalar OsgEarthNet.uav[59] utilizationEnergyCharge 214881.17529297
scalar OsgEarthNet.uav[59] utilizationEnergyOverdrawMission 0
scalar OsgEarthNet.uav[59] utilizationEnergyOverdrawMaintenance 0
scalar OsgEarthNet.uav[59] utilizationCountMissions 50
scalar OsgEarthNet.uav[59] utilizationCountManeuversMission 694
scalar OsgEarthNet.uav[59] utilizationCountManeuversMaintenance 100
scalar OsgEarthNet.uav[59] utilizationCountChargeState 50
scalar OsgEarthNet.uav[59] utilizationCountOverdrawnAfterMission 0
scalar OsgEarthNet.uav[59] utilizationCountIdleState 48
scalar OsgEarthNet.uav[59] utilizationFail 0
scalar OsgEarthNet.uav[59] simulationTime 259200
scalar OsgEarthNet.uav[60] utilizationSecMission 22733.689499432
scalar OsgEarthNet.uav[60] utilizationSecMaintenance 25496.524939784
scalar OsgEarthNet.uav[60] utilizationSecCharge 174980
scalar OsgEarthNet.uav[60] utilizationSecIdle 35989.784560785
scalar OsgEarthNet.uav[60] utilizationEnergyMission 112560.66093826
scalar OsgEarthNet.uav[60] utilizationEnergyMaintenance 118832.18261337
scalar OsgEarthNet.uav[60] utilizationEnergyCharge 228984.38183594
scalar OsgEarthNet.uav[60] utilizationEnergyOverdrawMission 0
scalar OsgEarthNet.uav[60] utilizationEnergyOverdrawMaintenance 116.67871856689
scalar OsgEarthNet.uav[60] utilizationCountMissions 53
scalar OsgEarthNet.uav[60] utilizationCountManeuversMission 753
scalar OsgEarthNet.uav[60] utilizationCountManeuversMaintenance 106
scalar OsgEarthNet.uav[60] utilizationCountChargeState 53
scalar OsgEarthNet.uav[60] utilizationCountOverdrawnAfterMission 1
scalar OsgEarthNet.uav[60] utilizationCountIdleState 49
scalar OsgEarthNet.uav[60] utilizationFail 0
scalar OsgEarthNet.uav[60] simulationTime 259200
scalar OsgEarthNet.uav[61] utilizationSecMission 20404.791010454
scalar OsgEarthNet.uav[61] utilizationSecMaintenance 21195.346766931
scalar OsgEarthNet.uav[61] utilizationSecCharge 148689.67499542
scalar OsgEarthNet.uav[61] utilizationSecIdle 68910.186227197
scalar OsgEarthNet.uav[61] utilizationEnergyMission 97962.10231781
scalar OsgEarthNet.uav[61] utilizationEnergyMaintenance 98934.795555115
scalar OsgEarthNet.uav[61] utilizationEnergyCharge 196688.52416992
scalar OsgEarthNet.uav[61] utilizationEnergyOverdrawMission 0
scalar OsgEarthNet.uav[61] utilizationEnergyOverdrawMaintenance 0
scalar OsgEarthNet.uav[61] utilizationCountMissions 45
scalar OsgEarthNet.uav[61] utilizationCountManeuversMission 592
scalar OsgEarthNet.uav[61] utilizationCountManeuversMaintenance 90
scalar OsgEarthNet.uav[61] utilizationCountChargeState 45
scalar OsgEarthNet.uav[61] utilizationCountOverdrawnAfterMission 0
scalar OsgEarthNet.uav[61] utilizationCountIdleState 37
scalar OsgEarthNet.uav[61] utilizationFail 0
scalar OsgEarthNet.uav[61] simulationTime 259200
scalar OsgEarthNet.uav[62] utilizationSecMission 22486.259677085
scalar OsgEarthNet.uav[62] utilizationSecMaintenance 20302.376599817
scalar OsgEarthNet.uav[62] utilizationSecCharge 155030
scalar OsgEarthNet.uav[62] utilizationSecIdle 61381.362723098
scalar OsgEarthNet.uav[62] utilizationEnergyMission 109661.31191254
scalar OsgEarthNet.uav[62] utilizationEnergyMaintenance 94491.339706421
scalar OsgEarthNet.uav[62] utilizationEnergyCharge 203193.62988281
scalar OsgEarthNet.uav[62] utilizationEnergyOverdrawMission 0
scalar OsgEarthNet.uav[62] utilizationEnergyOverdrawMaintenance 0
scalar OsgEarthNet.uav[62] utilizationCountMissions 47
scalar OsgEarthNet.uav[62] utilizationCountManeuversMission 673
scalar OsgEarthNet.uav[62] utilizationCountManeuversMaintenance 94
scalar OsgEarthNet.uav[62] utilizationCountChargeState 47
scalar OsgEarthNet.uav[62] utilizationCountOverdrawnAfterMission 0
scalar OsgEarthNet.uav[62] utilizationCountIdleState 42
scalar OsgEarthNet.uav[62] utilizationFail 0
scalar OsgEarthNet.uav[62] simulationTime 259200
scalar OsgEarthNet.uav[63] utilizationSecMission 22353.782922463
scalar OsgEarthNet.uav[63] utilizationSecMaintenance 22417.143513814
scalar OsgEarthNet.uav[63] utilizationSecCharge 160860
scalar OsgEarthNet.uav[63] utilizationSecIdle 53569.072563723
scalar OsgEarthNet.uav[63] utilizationEnergyMission 109359.0809021
scalar OsgEarthNet.uav[63] utilizationEnergyMaintenance 103713.4728508
scalar OsgEarthNet.uav[63] utilizationEnergyCharge 212338.57641602
scalar OsgEarthNet.uav[63] utilizationEnergyOverdrawMission 0
scalar OsgEarthNet.uav[63] utilizationEnergyOverdrawMaintenance 0
scalar OsgEarthNet.uav[63] utilizationCountMissions 49
scalar OsgEarthNet.uav[63] utilizationCountManeuversMission 692
scalar OsgEarthNet.uav[63] utilizationCountManeuversMaintenance 98
scalar OsgEarthNet.uav[63] utilizationCountChargeState 49
scalar OsgEarthNet.uav[63] utilizationCountOverdrawnAfterMission 0
scalar OsgEarthNet.uav[63] utilizationCountIdleState 42
scalar OsgEarthNet.uav[63] utilizationFail 0
scalar OsgEarthNet.uav[63] simulationTime 259200
scalar OsgEarthNet.uav[64] utilizationSecMission 26213.497941676
scalar OsgEarthNet.uav[64] utilizationSecMaintenance 21160.168278394
scalar OsgEarthNet.uav[64] utilizationSecCharge 167340
scalar OsgEarthNet.uav[64] utilizationSecIdle 44486.332779931
scalar OsgEarthNet.uav[64] utilizationEnergyMission 128001.4576416
scalar OsgEarthNet.uav[64] utilizationEnergyMaintenance 97604.785597374
scalar OsgEarthNet.uav[64] utilizationEnergyCharge 220295.68774414
scalar OsgEarthNet.uav[64] utilizationEnergyOverdrawMission 0
scalar OsgEarthNet.uav[64] utilizationEnergyOverdrawMaintenance 0
scalar OsgEarthNet.uav[64] utilizationCountMissions 52
scalar OsgEarthNet.uav[64] utilizationCountManeuversMission 798
scalar OsgEarthNet.uav[64] utilizationCountManeuversMaintenance 104
scalar OsgEarthNet.uav[64] utilizationCountChargeState 51
scalar OsgEarthNet.uav[64] utilizationCountOverdrawnAfterMission 0
scalar OsgEarthNet.uav[64] utilizationCountIdleState 43
scalar OsgEarthNet.uav[64] utilizationFail 0
scalar OsgEarthNet.uav[64] simulationTime 259200
scalar OsgEarthNet.uav[65] utilizationSecMission 24715.407961751
scalar OsgEarthNet.uav[65] utilizationSecMaintenance 23625.386033194
scalar OsgEarthNet.uav[65] utilizationSecCharge 174027.20300506
scalar OsgEarthNet.uav[65] utilizationSecIdle 36832.002
scalar OsgEarthNet.uav[65] utilizationEnergyMission 120226.72758865
scalar OsgEarthNet.uav[65] utilizationEnergyMaintenance 110580.38027954
scalar OsgEarthNet.uav[65] utilizationEnergyCharge 230341.98242188
scalar OsgEarthNet.uav[65] utilizationEnergyOverdrawMission 0
scalar OsgEarthNet.uav[65] utilizationEnergyOverdrawMaintenance 0
[...]
scalar OsgEarthNet.uav[81] utilizationCountManeuversMission 864
scalar OsgEarthNet.uav[81] utilizationCountManeuversMaintenance 120
scalar OsgEarthNet.uav[81] utilizationCountChargeState 60
scalar OsgEarthNet.uav[81] utilizationCountOverdrawnAfterMission 0
scalar OsgEarthNet.uav[81] utilizationCountIdleState 28
scalar OsgEarthNet.uav[81] utilizationFail 0
scalar OsgEarthNet.uav[81] simulationTime 259200
scalar OsgEarthNet.uav[82] utilizationSecMission 26797.231784059
scalar OsgEarthNet.uav[82] utilizationSecMaintenance 29011.360945794
scalar OsgEarthNet.uav[82] utilizationSecCharge 194819.40227015
scalar OsgEarthNet.uav[82] utilizationSecIdle 8572.004
scalar OsgEarthNet.uav[82] utilizationEnergyMission 128025.5655899
scalar OsgEarthNet.uav[82] utilizationEnergyMaintenance 135180.10869217
scalar OsgEarthNet.uav[82] utilizationEnergyCharge 261669.71392822
scalar OsgEarthNet.uav[82] utilizationEnergyOverdrawMission 0
scalar OsgEarthNet.uav[82] utilizationEnergyOverdrawMaintenance 97.23713684082
scalar OsgEarthNet.uav[82] utilizationCountMissions 61
scalar OsgEarthNet.uav[82] utilizationCountManeuversMission 779
scalar OsgEarthNet.uav[82] utilizationCountManeuversMaintenance 122
scalar OsgEarthNet.uav[82] utilizationCountChargeState 61
scalar OsgEarthNet.uav[82] utilizationCountOverdrawnAfterMission 1
scalar OsgEarthNet.uav[82] utilizationCountIdleState 27
scalar OsgEarthNet.uav[82] utilizationFail 0
scalar OsgEarthNet.uav[82] simulationTime 259200
scalar OsgEarthNet.uav[83] utilizationSecMission 26891.994128515
scalar OsgEarthNet.uav[83] utilizationSecMaintenance 28246.401823428
scalar OsgEarthNet.uav[83] utilizationSecCharge 195109.60304806
scalar OsgEarthNet.uav[83] utilizationSecIdle 8952
scalar OsgEarthNet.uav[83] utilizationEnergyMission 129827.02777481
scalar OsgEarthNet.uav[83] utilizationEnergyMaintenance 130739.04060364
scalar OsgEarthNet.uav[83] utilizationEnergyCharge 260989.02661133
scalar OsgEarthNet.uav[83] utilizationEnergyOverdrawMission 0
scalar OsgEarthNet.uav[83] utilizationEnergyOverdrawMaintenance 0
scalar OsgEarthNet.uav[83] utilizationCountMissions 61
scalar OsgEarthNet.uav[83] utilizationCountManeuversMission 809
scalar OsgEarthNet.uav[83] utilizationCountManeuversMaintenance 122
scalar OsgEarthNet.uav[83] utilizationCountChargeState 61
scalar OsgEarthNet.uav[83] utilizationCountOverdrawnAfterMission 0
scalar OsgEarthNet.uav[83] utilizationCountIdleState 30
scalar OsgEarthNet.uav[83] utilizationFail 0
scalar OsgEarthNet.uav[83] simulationTime 259200
scalar OsgEarthNet.uav[84] utilizationSecMission 26994.534669393
scalar OsgEarthNet.uav[84] utilizationSecMaintenance 29275.239880686
scalar OsgEarthNet.uav[84] utilizationSecCharge 195958.21844992
scalar OsgEarthNet.uav[84] utilizationSecIdle 6972.006
scalar OsgEarthNet.uav[84] utilizationEnergyMission 132871.03362274
scalar OsgEarthNet.uav[84] utilizationEnergyMaintenance 135726.52061844
scalar OsgEarthNet.uav[84] utilizationEnergyCharge 263911.70324707
scalar OsgEarthNet.uav[84] utilizationEnergyOverdrawMission 0
scalar OsgEarthNet.uav[84] utilizationEnergyOverdrawMaintenance 0
scalar OsgEarthNet.uav[84] utilizationCountMissions 62
scalar OsgEarthNet.uav[84] utilizationCountManeuversMission 867
scalar OsgEarthNet.uav[84] utilizationCountManeuversMaintenance 124
scalar OsgEarthNet.uav[84] utilizationCountChargeState 62
scalar OsgEarthNet.uav[84] utilizationCountOverdrawnAfterMission 0
scalar OsgEarthNet.uav[84] utilizationCountIdleState 18
scalar OsgEarthNet.uav[84] utilizationFail 0
scalar OsgEarthNet.uav[84] simulationTime 259200
scalar OsgEarthNet.uav[85] utilizationSecMission 29515.602469832
scalar OsgEarthNet.uav[85] utilizationSecMaintenance 26214.282027229
scalar OsgEarthNet.uav[85] utilizationSecCharge 194580.2776889
scalar OsgEarthNet.uav[85] utilizationSecIdle 8889.83681404
scalar OsgEarthNet.uav[85] utilizationEnergyMission 141718.697258
scalar OsgEarthNet.uav[85] utilizationEnergyMaintenance 121730.47930527
scalar OsgEarthNet.uav[85] utilizationEnergyCharge 262883.44970703
scalar OsgEarthNet.uav[85] utilizationEnergyOverdrawMission 0
scalar OsgEarthNet.uav[85] utilizationEnergyOverdrawMaintenance 0
scalar OsgEarthNet.uav[85] utilizationCountMissions 61
scalar OsgEarthNet.uav[85] utilizationCountManeuversMission 853
scalar OsgEarthNet.uav[85] utilizationCountManeuversMaintenance 122
scalar OsgEarthNet.uav[85] utilizationCountChargeState 61
scalar OsgEarthNet.uav[85] utilizationCountOverdrawnAfterMission 0
scalar OsgEarthNet.uav[85] utilizationCountIdleState 27
scalar OsgEarthNet.uav[85] utilizationFail 0
scalar OsgEarthNet.uav[85] simulationTime 259200
scalar OsgEarthNet.uav[86] utilizationSecMission 27904.564385157
scalar OsgEarthNet.uav[86] utilizationSecMaintenance 27031.497015272
scalar OsgEarthNet.uav[86] utilizationSecCharge 191100
scalar OsgEarthNet.uav[86] utilizationSecIdle 13163.937599571
scalar OsgEarthNet.uav[86] utilizationEnergyMission 134084.03078079
scalar OsgEarthNet.uav[86] utilizationEnergyMaintenance 125122.73890391
scalar OsgEarthNet.uav[86] utilizationEnergyCharge 257365.38378906
scalar OsgEarthNet.uav[86] utilizationEnergyOverdrawMission 0
scalar OsgEarthNet.uav[86] utilizationEnergyOverdrawMaintenance 281.92373657227
scalar OsgEarthNet.uav[86] utilizationCountMissions 59
scalar OsgEarthNet.uav[86] utilizationCountManeuversMission 825
scalar OsgEarthNet.uav[86] utilizationCountManeuversMaintenance 119
scalar OsgEarthNet.uav[86] utilizationCountChargeState 59
scalar OsgEarthNet.uav[86] utilizationCountOverdrawnAfterMission 1
scalar OsgEarthNet.uav[86] utilizationCountIdleState 30
scalar OsgEarthNet.uav[86] utilizationFail 0
scalar OsgEarthNet.uav[86] simulationTime 259200
scalar OsgEarthNet.uav[87] utilizationSecMission 27862.401991387
scalar OsgEarthNet.uav[87] utilizationSecMaintenance 28011.276922643
scalar OsgEarthNet.uav[87] utilizationSecCharge 193190.87399728
scalar OsgEarthNet.uav[87] utilizationSecIdle 10135.446088691
scalar OsgEarthNet.uav[87] utilizationEnergyMission 134307.98757935
scalar OsgEarthNet.uav[87] utilizationEnergyMaintenance 129307.75336075
scalar OsgEarthNet.uav[87] utilizationEnergyCharge 260056.36914062
scalar OsgEarthNet.uav[87] utilizationEnergyOverdrawMission 0
scalar OsgEarthNet.uav[87] utilizationEnergyOverdrawMaintenance 202.24703979492
scalar OsgEarthNet.uav[87] utilizationCountMissions 61
scalar OsgEarthNet.uav[87] utilizationCountManeuversMission 845
scalar OsgEarthNet.uav[87] utilizationCountManeuversMaintenance 122
scalar OsgEarthNet.uav[87] utilizationCountChargeState 61
scalar OsgEarthNet.uav[87] utilizationCountOverdrawnAfterMission 1
scalar OsgEarthNet.uav[87] utilizationCountIdleState 25
scalar OsgEarthNet.uav[87] utilizationFail 0
scalar OsgEarthNet.uav[87] simulationTime 259200
scalar OsgEarthNet.uav[88] utilizationSecMission 28064.820808251
scalar OsgEarthNet.uav[88] utilizationSecMaintenance 27073.171191749
scalar OsgEarthNet.uav[88] utilizationSecCharge 192960
scalar OsgEarthNet.uav[88] utilizationSecIdle 11102.007
scalar OsgEarthNet.uav[88] utilizationEnergyMission 135539.71660995
scalar OsgEarthNet.uav[88] utilizationEnergyMaintenance 124879.92882892
scalar OsgEarthNet.uav[88] utilizationEnergyCharge 259729.41259766
scalar OsgEarthNet.uav[88] utilizationEnergyOverdrawMission 0
scalar OsgEarthNet.uav[88] utilizationEnergyOverdrawMaintenance 0
scalar OsgEarthNet.uav[88] utilizationCountMissions 60
scalar OsgEarthNet.uav[88] utilizationCountManeuversMission 873
scalar OsgEarthNet.uav[88] utilizationCountManeuversMaintenance 121
scalar OsgEarthNet.uav[88] utilizationCountChargeState 60
scalar OsgEarthNet.uav[88] utilizationCountOverdrawnAfterMission 0
scalar OsgEarthNet.uav[88] utilizationCountIdleState 23
scalar OsgEarthNet.uav[88] utilizationFail 0
scalar OsgEarthNet.uav[88] simulationTime 259200
scalar OsgEarthNet.uav[89] utilizationSecMission 26147.492150964
scalar OsgEarthNet.uav[89] utilizationSecMaintenance 29509.919944061
scalar OsgEarthNet.uav[89] utilizationSecCharge 192882.66476243
scalar OsgEarthNet.uav[89] utilizationSecIdle 10659.922142547
scalar OsgEarthNet.uav[89] utilizationEnergyMission 127622.29742432
scalar OsgEarthNet.uav[89] utilizationEnergyMaintenance 135997.63661957
scalar OsgEarthNet.uav[89] utilizationEnergyCharge 260792.30529785
scalar OsgEarthNet.uav[89] utilizationEnergyOverdrawMission 0
scalar OsgEarthNet.uav[89] utilizationEnergyOverdrawMaintenance 157.04698181152
scalar OsgEarthNet.uav[89] utilizationCountMissions 61
scalar OsgEarthNet.uav[89] utilizationCountManeuversMission 890
scalar OsgEarthNet.uav[89] utilizationCountManeuversMaintenance 122
scalar OsgEarthNet.uav[89] utilizationCountChargeState 61
scalar OsgEarthNet.uav[89] utilizationCountOverdrawnAfterMission 1
scalar OsgEarthNet.uav[89] utilizationCountIdleState 24
scalar OsgEarthNet.uav[89] utilizationFail 0
scalar OsgEarthNet.uav[89] simulationTime 259200
scalar OsgEarthNet.uav[90] utilizationSecMission 27773.943244565
scalar OsgEarthNet.uav[90] utilizationSecMaintenance 27934.256807697
scalar OsgEarthNet.uav[90] utilizationSecCharge 193032.51050355
scalar OsgEarthNet.uav[90] utilizationSecIdle 10459.288444187
scalar OsgEarthNet.uav[90] utilizationEnergyMission 135544.14268494
scalar OsgEarthNet.uav[90] utilizationEnergyMaintenance 130182.51597595
scalar OsgEarthNet.uav[90] utilizationEnergyCharge 261125.7243042
scalar OsgEarthNet.uav[90] utilizationEnergyOverdrawMission 0
scalar OsgEarthNet.uav[90] utilizationEnergyOverdrawMaintenance 0
scalar OsgEarthNet.uav[90] utilizationCountMissions 61
scalar OsgEarthNet.uav[90] utilizationCountManeuversMission 892
scalar OsgEarthNet.uav[90] utilizationCountManeuversMaintenance 122
scalar OsgEarthNet.uav[90] utilizationCountChargeState 61
scalar OsgEarthNet.uav[90] utilizationCountOverdrawnAfterMission 0
scalar OsgEarthNet.uav[90] utilizationCountIdleState 21
scalar OsgEarthNet.uav[90] utilizationFail 0
scalar OsgEarthNet.uav[90] simulationTime 259200
scalar OsgEarthNet.uav[91] utilizationSecMission 28235.383062134
scalar OsgEarthNet.uav[91] utilizationSecMaintenance 27696.211625698
scalar OsgEarthNet.uav[91] utilizationSecCharge 193876.565329
scalar OsgEarthNet.uav[91] utilizationSecIdle 9391.83898317
scalar OsgEarthNet.uav[91] utilizationEnergyMission 136212.80667496
scalar OsgEarthNet.uav[91] utilizationEnergyMaintenance 129334.06192398
scalar OsgEarthNet.uav[91] utilizationEnergyCharge 261750.63378906
scalar OsgEarthNet.uav[91] utilizationEnergyOverdrawMission 0
scalar OsgEarthNet.uav[91] utilizationEnergyOverdrawMaintenance 0
scalar OsgEarthNet.uav[91] utilizationCountMissions 61
scalar OsgEarthNet.uav[91] utilizationCountManeuversMission 840
scalar OsgEarthNet.uav[91] utilizationCountManeuversMaintenance 122
scalar OsgEarthNet.uav[91] utilizationCountChargeState 61
scalar OsgEarthNet.uav[91] utilizationCountOverdrawnAfterMission 0
scalar OsgEarthNet.uav[91] utilizationCountIdleState 27
scalar OsgEarthNet.uav[91] utilizationFail 0
scalar OsgEarthNet.uav[91] simulationTime 259200
scalar OsgEarthNet.uav[92] utilizationSecMission 30156.691795081
scalar OsgEarthNet.uav[92] utilizationSecMaintenance 25184.015060119
scalar OsgEarthNet.uav[92] utilizationSecCharge 195213.5434521
scalar OsgEarthNet.uav[92] utilizationSecIdle 8645.7486927025
scalar OsgEarthNet.uav[92] utilizationEnergyMission 148132.83081055
scalar OsgEarthNet.uav[92] utilizationEnergyMaintenance 115560.88598251
scalar OsgEarthNet.uav[92] utilizationEnergyCharge 262129.92651367
scalar OsgEarthNet.uav[92] utilizationEnergyOverdrawMission 0
scalar OsgEarthNet.uav[92] utilizationEnergyOverdrawMaintenance 0
scalar OsgEarthNet.uav[92] utilizationCountMissions 61
scalar OsgEarthNet.uav[92] utilizationCountManeuversMission 1016
scalar OsgEarthNet.uav[92] utilizationCountManeuversMaintenance 122
scalar OsgEarthNet.uav[92] utilizationCountChargeState 61
scalar OsgEarthNet.uav[92] utilizationCountOverdrawnAfterMission 0
scalar OsgEarthNet.uav[92] utilizationCountIdleState 30
scalar OsgEarthNet.uav[92] utilizationFail 0
scalar OsgEarthNet.uav[92] simulationTime 259200
scalar OsgEarthNet.uav[93] utilizationSecMission 29206.206156055
scalar OsgEarthNet.uav[93] utilizationSecMaintenance 27254.674311103
scalar OsgEarthNet.uav[93] utilizationSecCharge 196627.11553284
scalar OsgEarthNet.uav[93] utilizationSecIdle 6112.003
scalar OsgEarthNet.uav[93] utilizationEnergyMission 139859.76305008
scalar OsgEarthNet.uav[93] utilizationEnergyMaintenance 126717.73217392
scalar OsgEarthNet.uav[93] utilizationEnergyCharge 265377.00854492
scalar OsgEarthNet.uav[93] utilizationEnergyOverdrawMission 0
scalar OsgEarthNet.uav[93] utilizationEnergyOverdrawMaintenance 0
scalar OsgEarthNet.uav[93] utilizationCountMissions 61
scalar OsgEarthNet.uav[93] utilizationCountManeuversMission 779
scalar OsgEarthNet.uav[93] utilizationCountManeuversMaintenance 122
scalar OsgEarthNet.uav[93] utilizationCountChargeState 61
scalar OsgEarthNet.uav[93] utilizationCountOverdrawnAfterMission 0
scalar OsgEarthNet.uav[93] utilizationCountIdleState 27
scalar OsgEarthNet.uav[93] utilizationFail 0
scalar OsgEarthNet.uav[93] simulationTime 259200
scalar OsgEarthNet.uav[94] utilizationSecMission 26562.12043197
scalar OsgEarthNet.uav[94] utilizationSecMaintenance 29285.621574313
scalar OsgEarthNet.uav[94] utilizationSecCharge 196696.52189231
scalar OsgEarthNet.uav[94] utilizationSecIdle 6655.7351014039
scalar OsgEarthNet.uav[94] utilizationEnergyMission 131496.08750153
scalar OsgEarthNet.uav[94] utilizationEnergyMaintenance 135983.94395828
scalar OsgEarthNet.uav[94] utilizationEnergyCharge 265779.66235352
scalar OsgEarthNet.uav[94] utilizationEnergyOverdrawMission 0
scalar OsgEarthNet.uav[94] utilizationEnergyOverdrawMaintenance 0
scalar OsgEarthNet.uav[94] utilizationCountMissions 62
scalar OsgEarthNet.uav[94] utilizationCountManeuversMission 922
scalar OsgEarthNet.uav[94] utilizationCountManeuversMaintenance 124
scalar OsgEarthNet.uav[94] utilizationCountChargeState 62
scalar OsgEarthNet.uav[94] utilizationCountOverdrawnAfterMission 0
scalar OsgEarthNet.uav[94] utilizationCountIdleState 19
scalar OsgEarthNet.uav[94] utilizationFail 0
scalar OsgEarthNet.uav[94] simulationTime 259200
scalar OsgEarthNet.uav[95] utilizationSecMission 28171.652662452
scalar OsgEarthNet.uav[95] utilizationSecMaintenance 28032.196376213
scalar OsgEarthNet.uav[95] utilizationSecCharge 197554.14896133
scalar OsgEarthNet.uav[95] utilizationSecIdle 5442.001
scalar OsgEarthNet.uav[95] utilizationEnergyMission 137227.20385361
scalar OsgEarthNet.uav[95] utilizationEnergyMaintenance 130033.18534088
scalar OsgEarthNet.uav[95] utilizationEnergyCharge 266134.8527832
scalar OsgEarthNet.uav[95] utilizationEnergyOverdrawMission 0
scalar OsgEarthNet.uav[95] utilizationEnergyOverdrawMaintenance 0
scalar OsgEarthNet.uav[95] utilizationCountMissions 63
scalar OsgEarthNet.uav[95] utilizationCountManeuversMission 921
scalar OsgEarthNet.uav[95] utilizationCountManeuversMaintenance 126
scalar OsgEarthNet.uav[95] utilizationCountChargeState 63
scalar OsgEarthNet.uav[95] utilizationCountOverdrawnAfterMission 0
scalar OsgEarthNet.uav[95] utilizationCountIdleState 21
scalar OsgEarthNet.uav[95] utilizationFail 0
scalar OsgEarthNet.uav[95] simulationTime 259200
scalar OsgEarthNet.uav[96] utilizationSecMission 27384.635027137
scalar OsgEarthNet.uav[96] utilizationSecMaintenance 30732.737812074
scalar OsgEarthNet.uav[96] utilizationSecCharge 198000
scalar OsgEarthNet.uav[96] utilizationSecIdle 3082.6261607893
scalar OsgEarthNet.uav[96] utilizationEnergyMission 132891.18478394
scalar OsgEarthNet.uav[96] utilizationEnergyMaintenance 143307.77025265
scalar OsgEarthNet.uav[96] utilizationEnergyCharge 272547.75756836
scalar OsgEarthNet.uav[96] utilizationEnergyOverdrawMission 0
scalar OsgEarthNet.uav[96] utilizationEnergyOverdrawMaintenance 0
scalar OsgEarthNet.uav[96] utilizationCountMissions 63
scalar OsgEarthNet.uav[96] utilizationCountManeuversMission 872
scalar OsgEarthNet.uav[96] utilizationCountManeuversMaintenance 126
scalar OsgEarthNet.uav[96] utilizationCountChargeState 62
scalar OsgEarthNet.uav[96] utilizationCountOverdrawnAfterMission 0
scalar OsgEarthNet.uav[96] utilizationCountIdleState 12
scalar OsgEarthNet.uav[96] utilizationFail 0
scalar OsgEarthNet.uav[96] simulationTime 259200
scalar OsgEarthNet.uav[97] utilizationSecMission 28170.373191993
scalar OsgEarthNet.uav[97] utilizationSecMaintenance 28714.092476957
scalar OsgEarthNet.uav[97] utilizationSecCharge 196481.69974566
scalar OsgEarthNet.uav[97] utilizationSecIdle 5833.8335853944
scalar OsgEarthNet.uav[97] utilizationEnergyMission 137445.44626999
scalar OsgEarthNet.uav[97] utilizationEnergyMaintenance 133387.6149826
scalar OsgEarthNet.uav[97] utilizationEnergyCharge 267337.00939941
scalar OsgEarthNet.uav[97] utilizationEnergyOverdrawMission 0
scalar OsgEarthNet.uav[97] utilizationEnergyOverdrawMaintenance 0
scalar OsgEarthNet.uav[97] utilizationCountMissions 62
scalar OsgEarthNet.uav[97] utilizationCountManeuversMission 866
scalar OsgEarthNet.uav[97] utilizationCountManeuversMaintenance 124
scalar OsgEarthNet.uav[97] utilizationCountChargeState 62
scalar OsgEarthNet.uav[97] utilizationCountOverdrawnAfterMission 0
scalar OsgEarthNet.uav[97] utilizationCountIdleState 19
scalar OsgEarthNet.uav[97] utilizationFail 0
scalar OsgEarthNet.uav[97] simulationTime 259200
scalar OsgEarthNet.uav[98] utilizationSecMission 30022.365350968
scalar OsgEarthNet.uav[98] utilizationSecMaintenance 26496.226600095
scalar OsgEarthNet.uav[98] utilizationSecCharge 196759.40704894
scalar OsgEarthNet.uav[98] utilizationSecIdle 5922
scalar OsgEarthNet.uav[98] utilizationEnergyMission 145349.07250977
scalar OsgEarthNet.uav[98] utilizationEnergyMaintenance 121894.60041428
scalar OsgEarthNet.uav[98] utilizationEnergyCharge 264139.53979492
scalar OsgEarthNet.uav[98] utilizationEnergyOverdrawMission 0
scalar OsgEarthNet.uav[98] utilizationEnergyOverdrawMaintenance 0
scalar OsgEarthNet.uav[98] utilizationCountMissions 62
scalar OsgEarthNet.uav[98] utilizationCountManeuversMission 909
scalar OsgEarthNet.uav[98] utilizationCountManeuversMaintenance 123
scalar OsgEarthNet.uav[98] utilizationCountChargeState 62
scalar OsgEarthNet.uav[98] utilizationCountOverdrawnAfterMission 0
scalar OsgEarthNet.uav[98] utilizationCountIdleState 23
scalar OsgEarthNet.uav[98] utilizationFail 0
scalar OsgEarthNet.uav[98] simulationTime 259200
scalar OsgEarthNet.uav[99] utilizationSecMission 26227.845737577
scalar OsgEarthNet.uav[99] utilizationSecMaintenance 29844.706948298
scalar OsgEarthNet.uav[99] utilizationSecCharge 195481.0160529
scalar OsgEarthNet.uav[99] utilizationSecIdle 7646.4302612234
scalar OsgEarthNet.uav[99] utilizationEnergyMission 127119.23011017
scalar OsgEarthNet.uav[99] utilizationEnergyMaintenance 139529.17687988
scalar OsgEarthNet.uav[99] utilizationEnergyCharge 265460.12988281
scalar OsgEarthNet.uav[99] utilizationEnergyOverdrawMission 0
scalar OsgEarthNet.uav[99] utilizationEnergyOverdrawMaintenance 0
scalar OsgEarthNet.uav[99] utilizationCountMissions 62
scalar OsgEarthNet.uav[99] utilizationCountManeuversMission 889
scalar OsgEarthNet.uav[99] utilizationCountManeuversMaintenance 124
scalar OsgEarthNet.uav[99] utilizationCountChargeState 62
scalar OsgEarthNet.uav[99] utilizationCountOverdrawnAfterMission 0
scalar OsgEarthNet.uav[99] utilizationCountIdleState 16
scalar OsgEarthNet.uav[99] utilizationFail 0
scalar OsgEarthNet.uav[99] simulationTime 259200
scalar OsgEarthNet.cs[0] usedPower 5457727.1730254
scalar OsgEarthNet.cs[0] chargedPower 5457727.1730254
scalar OsgEarthNet.cs[0] chargedMobileNodes 955
scalar OsgEarthNet.cs[0] reservations 1280
scalar OsgEarthNet.cs[1] usedPower 5800917.5466174
scalar OsgEarthNet.cs[1] chargedPower 5800917.5466174
scalar OsgEarthNet.cs[1] chargedMobileNodes 1006
scalar OsgEarthNet.cs[1] reservations 1312
scalar OsgEarthNet.cs[2] usedPower 9726984.865988
scalar OsgEarthNet.cs[2] chargedPower 9726984.865988
scalar OsgEarthNet.cs[2] chargedMobileNodes 1768
scalar OsgEarthNet.cs[2] reservations 2269

