version 2
run Szenario_Hotel_Gabelbach-31-20180707-22:02:24-52492
attr configname Szenario_Hotel_Gabelbach
attr datetime 20180707-22:02:24
attr experiment Szenario_Hotel_Gabelbach
attr inifile omnetpp.ini
attr iterationvars "$quant=0.75, $replM=0"
attr iterationvarsf quant=0.75,replM=0-
attr measurement "$quant=0.75, $replM=0"
attr network OsgEarthNet
attr processid 52492
attr repetition 7
attr replication #7
attr resultdir results
attr runnumber 31
attr seedset 31
itervar quant 0.75
itervar replM 0
param *.osgEarthScene.scene "\"Szenario_Hotel_Gabelbach.earth\""
param *.playgroundLatitude 50.6830269
param *.playgroundLongitude 10.8538055
param *.playgroundWidth 3500m
param *.playgroundHeight 3500m
param *.numCSs 3
param *.numUAVs 100
param *.cs[0].posX 3537m
param *.cs[0].posY 965m
param *.cs[0].posZ 538m
param *.cs[1].posX 312m
param *.cs[1].posY 1262m
param *.cs[1].posZ 539m
param *.cs[2].posX 2185m
param *.cs[2].posY 3026m
param *.cs[2].posZ 777m
param *.uav[*].predictionQuantile 0.75
param *.uav[*].replacementMethod 0
param *.*.timeStep 10s
param *.uav[*].commandPreviewCommandCount 20
param *.missionControl.missionFiles "\"missions\\\\Szenario_WB_Hotel_Gabelbach_Mission_Hotel.waypoints,missions\\\\Szenario_WB_Hotel_Gabelbach_Mission_Kickelhahn.waypoints,missions\\\\Szenario_WB_Hotel_Gabelbach_Mission_Ilmenau_Sportplatz.waypoints,missions\\\\Szenario_WB_Hotel_Gabelbach_Mission_Manebach_Mitte.waypoints,missions\\\\Szenario_WB_Hotel_Gabelbach_Mission_Manebach_Sued.waypoints,missions\\\\Szenario_WB_Hotel_Gabelbach_Hover_HoheSchlaufe.waypoints,missions\\\\Szenario_WB_Hotel_Gabelbach_Hover_Kickelhahn.waypoints,missions\\\\Szenario_WB_Hotel_Gabelbach_Hover_Gabelbachskopf.waypoints,missions\\\\Szenario_WB_Hotel_Gabelbach_Hover_Dachskopf.waypoints\""
param *.uav[0].startX 3537m
param *.uav[0].startY 965m
param *.uav[0].startZ 539m
param *.uav[1].startX 312m
param *.uav[1].startY 1262m
param *.uav[1].startZ 540m
param *.uav[2].startX 2185m
param *.uav[2].startY 3026m
param *.uav[2].startZ 778m
param *.uav[3].startX 3537m
param *.uav[3].startY 965m
param *.uav[3].startZ 539m
param *.uav[4].startX 312m
param *.uav[4].startY 1262m
param *.uav[4].startZ 540m
param *.uav[5].startX 2185m
param *.uav[5].startY 3026m
param *.uav[5].startZ 778m
param *.uav[6].startX 3537m
param *.uav[6].startY 965m
param *.uav[6].startZ 539m
param *.uav[7].startX 312m
param *.uav[7].startY 1262m
param *.uav[7].startZ 540m
param *.uav[8].startX 2185m
param *.uav[8].startY 3026m
param *.uav[8].startZ 778m
param *.uav[9].startX 3537m
param *.uav[9].startY 965m
param *.uav[9].startZ 539m
param *.uav[10].startX 3537m
param *.uav[10].startY 965m
param *.uav[10].startZ 539m
param *.uav[11].startX 312m
param *.uav[11].startY 1262m
param *.uav[11].startZ 540m
param *.uav[12].startX 2185m
param *.uav[12].startY 3026m
param *.uav[12].startZ 778m
param *.uav[13].startX 3537m
param *.uav[13].startY 965m
param *.uav[13].startZ 539m
param *.uav[14].startX 312m
param *.uav[14].startY 1262m
param *.uav[14].startZ 540m
param *.uav[15].startX 2185m
param *.uav[15].startY 3026m
param *.uav[15].startZ 778m
param *.uav[16].startX 3537m
param *.uav[16].startY 965m
param *.uav[16].startZ 539m
param *.uav[17].startX 312m
param *.uav[17].startY 1262m
param *.uav[17].startZ 540m
param *.uav[18].startX 2185m
param *.uav[18].startY 3026m
param *.uav[18].startZ 778m
param *.uav[19].startX 3537m
param *.uav[19].startY 965m
param *.uav[19].startZ 539m
param *.uav[20].startX 3537m
param *.uav[20].startY 965m
param *.uav[20].startZ 539m
param *.uav[21].startX 312m
param *.uav[21].startY 1262m
param *.uav[21].startZ 540m
param *.uav[22].startX 2185m
param *.uav[22].startY 3026m
param *.uav[22].startZ 778m
param *.uav[23].startX 3537m
param *.uav[23].startY 965m
param *.uav[23].startZ 539m
param *.uav[24].startX 312m
param *.uav[24].startY 1262m
param *.uav[24].startZ 540m
param *.uav[25].startX 2185m
param *.uav[25].startY 3026m
param *.uav[25].startZ 778m
param *.uav[26].startX 3537m
param *.uav[26].startY 965m
param *.uav[26].startZ 539m
param *.uav[27].startX 312m
param *.uav[27].startY 1262m
param *.uav[27].startZ 540m
param *.uav[28].startX 2185m
param *.uav[28].startY 3026m
param *.uav[28].startZ 778m
param *.uav[29].startX 3537m
param *.uav[29].startY 965m
param *.uav[29].startZ 539m
param *.uav[30].startX 3537m
param *.uav[30].startY 965m
param *.uav[30].startZ 539m
param *.uav[31].startX 312m
param *.uav[31].startY 1262m
param *.uav[31].startZ 540m
param *.uav[32].startX 2185m
param *.uav[32].startY 3026m
param *.uav[32].startZ 778m
param *.uav[33].startX 3537m
param *.uav[33].startY 965m
param *.uav[33].startZ 539m
param *.uav[34].startX 312m
param *.uav[34].startY 1262m
param *.uav[34].startZ 540m
param *.uav[35].startX 2185m
param *.uav[35].startY 3026m
param *.uav[35].startZ 778m
param *.uav[36].startX 3537m
param *.uav[36].startY 965m
param *.uav[36].startZ 539m
param *.uav[37].startX 312m
param *.uav[37].startY 1262m
param *.uav[37].startZ 540m
param *.uav[38].startX 2185m
param *.uav[38].startY 3026m
param *.uav[38].startZ 778m
param *.uav[39].startX 3537m
param *.uav[39].startY 965m
param *.uav[39].startZ 539m
param *.uav[40].startX 3537m
param *.uav[40].startY 965m
param *.uav[40].startZ 539m
param *.uav[41].startX 312m
param *.uav[41].startY 1262m
param *.uav[41].startZ 540m
param *.uav[42].startX 2185m
param *.uav[42].startY 3026m
param *.uav[42].startZ 778m
param *.uav[43].startX 3537m
param *.uav[43].startY 965m
param *.uav[43].startZ 539m
param *.uav[44].startX 312m
param *.uav[44].startY 1262m
param *.uav[44].startZ 540m
param *.uav[45].startX 2185m
param *.uav[45].startY 3026m
param *.uav[45].startZ 778m
param *.uav[46].startX 3537m
param *.uav[46].startY 965m
param *.uav[46].startZ 539m
param *.uav[47].startX 312m
param *.uav[47].startY 1262m
param *.uav[47].startZ 540m
param *.uav[48].startX 2185m
param *.uav[48].startY 3026m
param *.uav[48].startZ 778m
param *.uav[49].startX 3537m
param *.uav[49].startY 965m
param *.uav[49].startZ 539m
param *.uav[50].startX 3537m
param *.uav[50].startY 965m
param *.uav[50].startZ 539m
param *.uav[51].startX 312m
param *.uav[51].startY 1262m
param *.uav[51].startZ 540m
param *.uav[52].startX 2185m
param *.uav[52].startY 3026m
param *.uav[52].startZ 778m
param *.uav[53].startX 3537m
param *.uav[53].startY 965m
param *.uav[53].startZ 539m
param *.uav[54].startX 312m
param *.uav[54].startY 1262m
param *.uav[54].startZ 540m
param *.uav[55].startX 2185m
param *.uav[55].startY 3026m
param *.uav[55].startZ 778m
param *.uav[56].startX 3537m
param *.uav[56].startY 965m
param *.uav[56].startZ 539m
param *.uav[57].startX 312m
param *.uav[57].startY 1262m
param *.uav[57].startZ 540m
param *.uav[58].startX 2185m
param *.uav[58].startY 3026m
param *.uav[58].startZ 778m
param *.uav[59].startX 3537m
param *.uav[59].startY 965m
param *.uav[59].startZ 539m
param *.uav[60].startX 3537m
param *.uav[60].startY 965m
param *.uav[60].startZ 539m
param *.uav[61].startX 312m
param *.uav[61].startY 1262m
param *.uav[61].startZ 540m
param *.uav[62].startX 2185m
param *.uav[62].startY 3026m
param *.uav[62].startZ 778m
param *.uav[63].startX 3537m
param *.uav[63].startY 965m
param *.uav[63].startZ 539m
param *.uav[64].startX 312m
param *.uav[64].startY 1262m
param *.uav[64].startZ 540m
param *.uav[65].startX 2185m
param *.uav[65].startY 3026m
param *.uav[65].startZ 778m
param *.uav[66].startX 3537m
param *.uav[66].startY 965m
param *.uav[66].startZ 539m
param *.uav[67].startX 312m
param *.uav[67].startY 1262m
param *.uav[67].startZ 540m
param *.uav[68].startX 2185m
param *.uav[68].startY 3026m
param *.uav[68].startZ 778m
param *.uav[69].startX 3537m
param *.uav[69].startY 965m
param *.uav[69].startZ 539m
param *.uav[70].startX 3537m
param *.uav[70].startY 965m
param *.uav[70].startZ 539m
param *.uav[71].startX 312m
param *.uav[71].startY 1262m
param *.uav[71].startZ 540m
param *.uav[72].startX 2185m
param *.uav[72].startY 3026m
param *.uav[72].startZ 778m
param *.uav[73].startX 3537m
param *.uav[73].startY 965m
param *.uav[73].startZ 539m
param *.uav[74].startX 312m
param *.uav[74].startY 1262m
param *.uav[74].startZ 540m
param *.uav[75].startX 2185m
param *.uav[75].startY 3026m
param *.uav[75].startZ 778m
param *.uav[76].startX 3537m
param *.uav[76].startY 965m
param *.uav[76].startZ 539m
param *.uav[77].startX 312m
param *.uav[77].startY 1262m
param *.uav[77].startZ 540m
param *.uav[78].startX 2185m
param *.uav[78].startY 3026m
param *.uav[78].startZ 778m
param *.uav[79].startX 3537m
param *.uav[79].startY 965m
param *.uav[79].startZ 539m
param *.uav[80].startX 3537m
param *.uav[80].startY 965m
param *.uav[80].startZ 539m
param *.uav[81].startX 312m
param *.uav[81].startY 1262m
param *.uav[81].startZ 540m
param *.uav[82].startX 2185m
param *.uav[82].startY 3026m
param *.uav[82].startZ 778m
param *.uav[83].startX 3537m
param *.uav[83].startY 965m
param *.uav[83].startZ 539m
param *.uav[84].startX 312m
param *.uav[84].startY 1262m
param *.uav[84].startZ 540m
param *.uav[85].startX 2185m
param *.uav[85].startY 3026m
param *.uav[85].startZ 778m
param *.uav[86].startX 3537m
param *.uav[86].startY 965m
param *.uav[86].startZ 539m
param *.uav[87].startX 312m
param *.uav[87].startY 1262m
param *.uav[87].startZ 540m
param *.uav[88].startX 2185m
param *.uav[88].startY 3026m
param *.uav[88].startZ 778m
param *.uav[89].startX 3537m
param *.uav[89].startY 965m
param *.uav[89].startZ 539m
param *.uav[90].startX 3537m
param *.uav[90].startY 965m
param *.uav[90].startZ 539m
param *.uav[91].startX 312m
param *.uav[91].startY 1262m
param *.uav[91].startZ 540m
param *.uav[92].startX 2185m
param *.uav[92].startY 3026m
param *.uav[92].startZ 778m
param *.uav[93].startX 3537m
param *.uav[93].startY 965m
param *.uav[93].startZ 539m
param *.uav[94].startX 312m
param *.uav[94].startY 1262m
param *.uav[94].startZ 540m
param *.uav[95].startX 2185m
param *.uav[95].startY 3026m
param *.uav[95].startZ 778m
param *.uav[96].startX 3537m
param *.uav[96].startY 965m
param *.uav[96].startZ 539m
param *.uav[97].startX 312m
param *.uav[97].startY 1262m
param *.uav[97].startZ 540m
param *.uav[98].startX 2185m
param *.uav[98].startY 3026m
param *.uav[98].startZ 778m
param *.uav[99].startX 3537m
param *.uav[99].startY 965m
param *.uav[99].startZ 539m
param *.osgEarthScene.scene "\"boston.earth\""
param *.playgroundLatitude 42.3558
param *.playgroundLongitude -71.0677
param *.playgroundWidth 400m
param *.playgroundHeight 200m
param *.channelController.connectionColor "\"#0000FF40\""
param *.channelController.showConnections false
param *.uav[*].modelURL "\"quadrocopter.small.obj.15.scale.0,0,90.rot\""
param *.uav[*].labelColor "\"#FF7C00CC\""
param *.uav[*].label2Color "\"#FF7C00EE\""
param *.uav[*].batteryCapacity 5200mAh
param *.uav[*].batteryRemaining uav[index].batteryCapacity
param *.uav[*].predictionQuantile 0.95
param *.uav[*].replacementMethod 2
param *.uav[*].weightedSumWeight 0.5
param *.cs[*].modelURL "\"chargingstation_v1.osgt.1.scale.0,0,0.rot.0,0,-15e-1.trans\""
param *.cs[*].spotsWaiting 999
param *.cs[*].spotsCharging 999
param *.cs[*].chargeEffectivenessPercentage 100
param *.cs[*].nonLinearPhaseStartPercentage 85
param *.cs[*].chargeCurrent 6.0A
param *.cs[*].prioritizeFastCharge true
param *.missionControl.replacementSearchMethod 0
param *.*.timeStep 9s

scalar OsgEarthNet.uav[0] utilizationSecMission 13072.766204683
scalar OsgEarthNet.uav[0] utilizationSecMaintenance 8561.2663261414
scalar OsgEarthNet.uav[0] utilizationSecCharge 74783.046814537
scalar OsgEarthNet.uav[0] utilizationSecIdle 26160.569420895
scalar OsgEarthNet.uav[0] utilizationEnergyMission 62718.270275116
scalar OsgEarthNet.uav[0] utilizationEnergyMaintenance 40184.016902924
scalar OsgEarthNet.uav[0] utilizationEnergyCharge 99262.010986328
scalar OsgEarthNet.uav[0] utilizationEnergyOverdrawMission 0
scalar OsgEarthNet.uav[0] utilizationEnergyOverdrawMaintenance 0
scalar OsgEarthNet.uav[0] utilizationCountMissions 21
scalar OsgEarthNet.uav[0] utilizationCountManeuversMission 331
scalar OsgEarthNet.uav[0] utilizationCountManeuversMaintenance 42
scalar OsgEarthNet.uav[0] utilizationCountChargeState 21
scalar OsgEarthNet.uav[0] utilizationCountOverdrawnAfterMission 0
scalar OsgEarthNet.uav[0] utilizationCountIdleState 21
scalar OsgEarthNet.uav[0] utilizationFail 0
scalar OsgEarthNet.uav[0] simulationTime 122577.64976626
scalar OsgEarthNet.uav[1] utilizationSecMission 440
scalar OsgEarthNet.uav[1] utilizationSecMaintenance 507.16988087142
scalar OsgEarthNet.uav[1] utilizationSecCharge 3700
scalar OsgEarthNet.uav[1] utilizationSecIdle 117930.47888539
scalar OsgEarthNet.uav[1] utilizationEnergyMission 2508.9701004028
scalar OsgEarthNet.uav[1] utilizationEnergyMaintenance 2515.6225700378
scalar OsgEarthNet.uav[1] utilizationEnergyCharge 4913.8701171875
scalar OsgEarthNet.uav[1] utilizationEnergyOverdrawMission 0
scalar OsgEarthNet.uav[1] utilizationEnergyOverdrawMaintenance 0
scalar OsgEarthNet.uav[1] utilizationCountMissions 1
scalar OsgEarthNet.uav[1] utilizationCountManeuversMission 22
scalar OsgEarthNet.uav[1] utilizationCountManeuversMaintenance 2
scalar OsgEarthNet.uav[1] utilizationCountChargeState 1
scalar OsgEarthNet.uav[1] utilizationCountOverdrawnAfterMission 0
scalar OsgEarthNet.uav[1] utilizationCountIdleState 2
scalar OsgEarthNet.uav[1] utilizationFail 0
scalar OsgEarthNet.uav[1] simulationTime 122577.64976626
scalar OsgEarthNet.uav[2] utilizationSecMission 13697.314429906
scalar OsgEarthNet.uav[2] utilizationSecMaintenance 8222.2150551569
scalar OsgEarthNet.uav[2] utilizationSecCharge 79026.117281194
scalar OsgEarthNet.uav[2] utilizationSecIdle 21632.002
scalar OsgEarthNet.uav[2] utilizationEnergyMission 67300.412204742
scalar OsgEarthNet.uav[2] utilizationEnergyMaintenance 38386.389167786
scalar OsgEarthNet.uav[2] utilizationEnergyCharge 105276.95898438
scalar OsgEarthNet.uav[2] utilizationEnergyOverdrawMission 0
scalar OsgEarthNet.uav[2] utilizationEnergyOverdrawMaintenance 0
scalar OsgEarthNet.uav[2] utilizationCountMissions 22
scalar OsgEarthNet.uav[2] utilizationCountManeuversMission 503
scalar OsgEarthNet.uav[2] utilizationCountManeuversMaintenance 44
scalar OsgEarthNet.uav[2] utilizationCountChargeState 22
scalar OsgEarthNet.uav[2] utilizationCountOverdrawnAfterMission 0
scalar OsgEarthNet.uav[2] utilizationCountIdleState 22
scalar OsgEarthNet.uav[2] utilizationFail 0
scalar OsgEarthNet.uav[2] simulationTime 122577.64976626
scalar OsgEarthNet.uav[3] utilizationSecMission 7986.3439048124
scalar OsgEarthNet.uav[3] utilizationSecMaintenance 6209.2948614442
scalar OsgEarthNet.uav[3] utilizationSecCharge 47540
scalar OsgEarthNet.uav[3] utilizationSecIdle 60842.01
scalar OsgEarthNet.uav[3] utilizationEnergyMission 37593.55805243
scalar OsgEarthNet.uav[3] utilizationEnergyMaintenance 28512.173763275
scalar OsgEarthNet.uav[3] utilizationEnergyCharge 62624.444824219
scalar OsgEarthNet.uav[3] utilizationEnergyOverdrawMission 0
scalar OsgEarthNet.uav[3] utilizationEnergyOverdrawMaintenance 65.33763885498
scalar OsgEarthNet.uav[3] utilizationCountMissions 13
scalar OsgEarthNet.uav[3] utilizationCountManeuversMission 233
scalar OsgEarthNet.uav[3] utilizationCountManeuversMaintenance 27
scalar OsgEarthNet.uav[3] utilizationCountChargeState 13
scalar OsgEarthNet.uav[3] utilizationCountOverdrawnAfterMission 1
scalar OsgEarthNet.uav[3] utilizationCountIdleState 14
scalar OsgEarthNet.uav[3] utilizationFail 0
scalar OsgEarthNet.uav[3] simulationTime 122577.64976626
scalar OsgEarthNet.uav[4] utilizationSecMission 12516.646975815
scalar OsgEarthNet.uav[4] utilizationSecMaintenance 9248.092927287
scalar OsgEarthNet.uav[4] utilizationSecCharge 77190.901863155
scalar OsgEarthNet.uav[4] utilizationSecIdle 23622.007
scalar OsgEarthNet.uav[4] utilizationEnergyMission 61488.647480011
scalar OsgEarthNet.uav[4] utilizationEnergyMaintenance 42267.88457489
scalar OsgEarthNet.uav[4] utilizationEnergyCharge 103090.1171875
scalar OsgEarthNet.uav[4] utilizationEnergyOverdrawMission 0
scalar OsgEarthNet.uav[4] utilizationEnergyOverdrawMaintenance 0
scalar OsgEarthNet.uav[4] utilizationCountMissions 21
scalar OsgEarthNet.uav[4] utilizationCountManeuversMission 393
scalar OsgEarthNet.uav[4] utilizationCountManeuversMaintenance 42
scalar OsgEarthNet.uav[4] utilizationCountChargeState 21
scalar OsgEarthNet.uav[4] utilizationCountOverdrawnAfterMission 0
scalar OsgEarthNet.uav[4] utilizationCountIdleState 21
scalar OsgEarthNet.uav[4] utilizationFail 0
scalar OsgEarthNet.uav[4] simulationTime 122577.64976626
scalar OsgEarthNet.uav[5] utilizationSecMission 9911.683917764
scalar OsgEarthNet.uav[5] utilizationSecMaintenance 5320.9988868586
scalar OsgEarthNet.uav[5] utilizationSecCharge 53838.260598954
scalar OsgEarthNet.uav[5] utilizationSecIdle 53506.70536268
scalar OsgEarthNet.uav[5] utilizationEnergyMission 48434.767360687
scalar OsgEarthNet.uav[5] utilizationEnergyMaintenance 24371.885181427
scalar OsgEarthNet.uav[5] utilizationEnergyCharge 71851.803710938
scalar OsgEarthNet.uav[5] utilizationEnergyOverdrawMission 0
scalar OsgEarthNet.uav[5] utilizationEnergyOverdrawMaintenance 0
scalar OsgEarthNet.uav[5] utilizationCountMissions 15
scalar OsgEarthNet.uav[5] utilizationCountManeuversMission 271
scalar OsgEarthNet.uav[5] utilizationCountManeuversMaintenance 30
scalar OsgEarthNet.uav[5] utilizationCountChargeState 15
scalar OsgEarthNet.uav[5] utilizationCountOverdrawnAfterMission 0
scalar OsgEarthNet.uav[5] utilizationCountIdleState 15
scalar OsgEarthNet.uav[5] utilizationFail 0
scalar OsgEarthNet.uav[5] simulationTime 122577.64976626
scalar OsgEarthNet.uav[6] utilizationSecMission 12789.426440565
scalar OsgEarthNet.uav[6] utilizationSecMaintenance 9857.7875608573
scalar OsgEarthNet.uav[6] utilizationSecCharge 80568.29495169
scalar OsgEarthNet.uav[6] utilizationSecIdle 19362.139813144
scalar OsgEarthNet.uav[6] utilizationEnergyMission 61853.86075592
scalar OsgEarthNet.uav[6] utilizationEnergyMaintenance 45701.934288025
scalar OsgEarthNet.uav[6] utilizationEnergyCharge 106415.32470703
scalar OsgEarthNet.uav[6] utilizationEnergyOverdrawMission 0
scalar OsgEarthNet.uav[6] utilizationEnergyOverdrawMaintenance 31.984903335571
scalar OsgEarthNet.uav[6] utilizationCountMissions 22
scalar OsgEarthNet.uav[6] utilizationCountManeuversMission 355
scalar OsgEarthNet.uav[6] utilizationCountManeuversMaintenance 44
scalar OsgEarthNet.uav[6] utilizationCountChargeState 22
scalar OsgEarthNet.uav[6] utilizationCountOverdrawnAfterMission 1
scalar OsgEarthNet.uav[6] utilizationCountIdleState 22
scalar OsgEarthNet.uav[6] utilizationFail 0
scalar OsgEarthNet.uav[6] simulationTime 122577.64976626
scalar OsgEarthNet.uav[7] utilizationSecMission 14506.718868364
scalar OsgEarthNet.uav[7] utilizationSecMaintenance 8821.2384451239
scalar OsgEarthNet.uav[7] utilizationSecCharge 83197.690945386
scalar OsgEarthNet.uav[7] utilizationSecIdle 16052.000507383
scalar OsgEarthNet.uav[7] utilizationEnergyMission 69386.335502625
scalar OsgEarthNet.uav[7] utilizationEnergyMaintenance 40839.877731323
scalar OsgEarthNet.uav[7] utilizationEnergyCharge 110383.18066406
scalar OsgEarthNet.uav[7] utilizationEnergyOverdrawMission 0
scalar OsgEarthNet.uav[7] utilizationEnergyOverdrawMaintenance 0
scalar OsgEarthNet.uav[7] utilizationCountMissions 23
scalar OsgEarthNet.uav[7] utilizationCountManeuversMission 407
scalar OsgEarthNet.uav[7] utilizationCountManeuversMaintenance 46
scalar OsgEarthNet.uav[7] utilizationCountChargeState 23
scalar OsgEarthNet.uav[7] utilizationCountOverdrawnAfterMission 0
scalar OsgEarthNet.uav[7] utilizationCountIdleState 23
scalar OsgEarthNet.uav[7] utilizationFail 0
scalar OsgEarthNet.uav[7] simulationTime 122577.64976626
scalar OsgEarthNet.uav[8] utilizationSecMission 7347.2948931735
scalar OsgEarthNet.uav[8] utilizationSecMaintenance 3929.8455589214
scalar OsgEarthNet.uav[8] utilizationSecCharge 36858.505314162
scalar OsgEarthNet.uav[8] utilizationSecIdle 74442.003
scalar OsgEarthNet.uav[8] utilizationEnergyMission 37256.339839935
scalar OsgEarthNet.uav[8] utilizationEnergyMaintenance 18137.19562149
scalar OsgEarthNet.uav[8] utilizationEnergyCharge 48901.515197754
scalar OsgEarthNet.uav[8] utilizationEnergyOverdrawMission 0
scalar OsgEarthNet.uav[8] utilizationEnergyOverdrawMaintenance 0
scalar OsgEarthNet.uav[8] utilizationCountMissions 11
scalar OsgEarthNet.uav[8] utilizationCountManeuversMission 325
scalar OsgEarthNet.uav[8] utilizationCountManeuversMaintenance 22
scalar OsgEarthNet.uav[8] utilizationCountChargeState 11
scalar OsgEarthNet.uav[8] utilizationCountOverdrawnAfterMission 0
scalar OsgEarthNet.uav[8] utilizationCountIdleState 11
scalar OsgEarthNet.uav[8] utilizationFail 0
scalar OsgEarthNet.uav[8] simulationTime 122577.64976626
scalar OsgEarthNet.uav[9] utilizationSecMission 11632.17888783
scalar OsgEarthNet.uav[9] utilizationSecMaintenance 7419.9621474764
scalar OsgEarthNet.uav[9] utilizationSecCharge 66863.499730951
scalar OsgEarthNet.uav[9] utilizationSecIdle 36662.008
scalar OsgEarthNet.uav[9] utilizationEnergyMission 56278.388214111
scalar OsgEarthNet.uav[9] utilizationEnergyMaintenance 35469.670261383
scalar OsgEarthNet.uav[9] utilizationEnergyCharge 88562.349731445
scalar OsgEarthNet.uav[9] utilizationEnergyOverdrawMission 0
scalar OsgEarthNet.uav[9] utilizationEnergyOverdrawMaintenance 0
scalar OsgEarthNet.uav[9] utilizationCountMissions 19
scalar OsgEarthNet.uav[9] utilizationCountManeuversMission 358
scalar OsgEarthNet.uav[9] utilizationCountManeuversMaintenance 38
scalar OsgEarthNet.uav[9] utilizationCountChargeState 19
scalar OsgEarthNet.uav[9] utilizationCountOverdrawnAfterMission 0
scalar OsgEarthNet.uav[9] utilizationCountIdleState 19
scalar OsgEarthNet.uav[9] utilizationFail 0
scalar OsgEarthNet.uav[9] simulationTime 122577.64976626
scalar OsgEarthNet.uav[10] utilizationSecMission 3718.6131593066
scalar OsgEarthNet.uav[10] utilizationSecMaintenance 3577.3699442796
scalar OsgEarthNet.uav[10] utilizationSecCharge 25660
scalar OsgEarthNet.uav[10] utilizationSecIdle 89621.66566267
scalar OsgEarthNet.uav[10] utilizationEnergyMission 17262.29914093
scalar OsgEarthNet.uav[10] utilizationEnergyMaintenance 16645.188556671
scalar OsgEarthNet.uav[10] utilizationEnergyCharge 33977.731445312
scalar OsgEarthNet.uav[10] utilizationEnergyOverdrawMission 0
scalar OsgEarthNet.uav[10] utilizationEnergyOverdrawMaintenance 0
scalar OsgEarthNet.uav[10] utilizationCountMissions 7
scalar OsgEarthNet.uav[10] utilizationCountManeuversMission 104
scalar OsgEarthNet.uav[10] utilizationCountManeuversMaintenance 14
scalar OsgEarthNet.uav[10] utilizationCountChargeState 7
scalar OsgEarthNet.uav[10] utilizationCountOverdrawnAfterMission 0
scalar OsgEarthNet.uav[10] utilizationCountIdleState 8
scalar OsgEarthNet.uav[10] utilizationFail 0
scalar OsgEarthNet.uav[10] simulationTime 122577.64976626
scalar OsgEarthNet.uav[11] utilizationSecMission 12257.645088999
scalar OsgEarthNet.uav[11] utilizationSecMaintenance 9056.3418134795
scalar OsgEarthNet.uav[11] utilizationSecCharge 77982.698877443
scalar OsgEarthNet.uav[11] utilizationSecIdle 23280.962986334
scalar OsgEarthNet.uav[11] utilizationEnergyMission 60460.876686096
scalar OsgEarthNet.uav[11] utilizationEnergyMaintenance 41712.224479675
scalar OsgEarthNet.uav[11] utilizationEnergyCharge 103663.21484375
scalar OsgEarthNet.uav[11] utilizationEnergyOverdrawMission 0
scalar OsgEarthNet.uav[11] utilizationEnergyOverdrawMaintenance 0
scalar OsgEarthNet.uav[11] utilizationCountMissions 21
scalar OsgEarthNet.uav[11] utilizationCountManeuversMission 482
scalar OsgEarthNet.uav[11] utilizationCountManeuversMaintenance 42
scalar OsgEarthNet.uav[11] utilizationCountChargeState 21
scalar OsgEarthNet.uav[11] utilizationCountOverdrawnAfterMission 0
scalar OsgEarthNet.uav[11] utilizationCountIdleState 21
scalar OsgEarthNet.uav[11] utilizationFail 0
scalar OsgEarthNet.uav[11] simulationTime 122577.64976626
scalar OsgEarthNet.uav[12] utilizationSecMission 6076.9473189341
scalar OsgEarthNet.uav[12] utilizationSecMaintenance 4036.2646948581
scalar OsgEarthNet.uav[12] utilizationSecCharge 33482.432752464
scalar OsgEarthNet.uav[12] utilizationSecIdle 78982.004
scalar OsgEarthNet.uav[12] utilizationEnergyMission 29231.467750549
scalar OsgEarthNet.uav[12] utilizationEnergyMaintenance 18327.137321472
scalar OsgEarthNet.uav[12] utilizationEnergyCharge 44699.11114502
scalar OsgEarthNet.uav[12] utilizationEnergyOverdrawMission 0
scalar OsgEarthNet.uav[12] utilizationEnergyOverdrawMaintenance 0
scalar OsgEarthNet.uav[12] utilizationCountMissions 10
scalar OsgEarthNet.uav[12] utilizationCountManeuversMission 207
scalar OsgEarthNet.uav[12] utilizationCountManeuversMaintenance 20
scalar OsgEarthNet.uav[12] utilizationCountChargeState 10
scalar OsgEarthNet.uav[12] utilizationCountOverdrawnAfterMission 0
scalar OsgEarthNet.uav[12] utilizationCountIdleState 10
scalar OsgEarthNet.uav[12] utilizationFail 0
scalar OsgEarthNet.uav[12] simulationTime 122577.64976626
scalar OsgEarthNet.uav[13] utilizationSecMission 750.20472747826
scalar OsgEarthNet.uav[13] utilizationSecMaintenance 361.53438900264
scalar OsgEarthNet.uav[13] utilizationSecCharge 3770
scalar OsgEarthNet.uav[13] utilizationSecIdle 117695.90964978
scalar OsgEarthNet.uav[13] utilizationEnergyMission 3354.1107177734
scalar OsgEarthNet.uav[13] utilizationEnergyMaintenance 1719.4879989624
scalar OsgEarthNet.uav[13] utilizationEnergyCharge 5073.6020507812
scalar OsgEarthNet.uav[13] utilizationEnergyOverdrawMission 0
scalar OsgEarthNet.uav[13] utilizationEnergyOverdrawMaintenance 0
scalar OsgEarthNet.uav[13] utilizationCountMissions 1
scalar OsgEarthNet.uav[13] utilizationCountManeuversMission 11
scalar OsgEarthNet.uav[13] utilizationCountManeuversMaintenance 2
scalar OsgEarthNet.uav[13] utilizationCountChargeState 1
scalar OsgEarthNet.uav[13] utilizationCountOverdrawnAfterMission 0
scalar OsgEarthNet.uav[13] utilizationCountIdleState 2
scalar OsgEarthNet.uav[13] utilizationFail 0
scalar OsgEarthNet.uav[13] simulationTime 122577.64976626
scalar OsgEarthNet.uav[14] utilizationSecMission 11105.608176759
scalar OsgEarthNet.uav[14] utilizationSecMaintenance 8242.4304435148
scalar OsgEarthNet.uav[14] utilizationSecCharge 67547.602145983
scalar OsgEarthNet.uav[14] utilizationSecIdle 35682.008
scalar OsgEarthNet.uav[14] utilizationEnergyMission 54220.120399475
scalar OsgEarthNet.uav[14] utilizationEnergyMaintenance 37253.448421478
scalar OsgEarthNet.uav[14] utilizationEnergyCharge 89903.391723633
scalar OsgEarthNet.uav[14] utilizationEnergyOverdrawMission 0
scalar OsgEarthNet.uav[14] utilizationEnergyOverdrawMaintenance 0
scalar OsgEarthNet.uav[14] utilizationCountMissions 19
scalar OsgEarthNet.uav[14] utilizationCountManeuversMission 425
scalar OsgEarthNet.uav[14] utilizationCountManeuversMaintenance 38
scalar OsgEarthNet.uav[14] utilizationCountChargeState 19
scalar OsgEarthNet.uav[14] utilizationCountOverdrawnAfterMission 0
scalar OsgEarthNet.uav[14] utilizationCountIdleState 19
scalar OsgEarthNet.uav[14] utilizationFail 0
scalar OsgEarthNet.uav[14] simulationTime 122577.64976626
scalar OsgEarthNet.uav[15] utilizationSecMission 13308.645000748
scalar OsgEarthNet.uav[15] utilizationSecMaintenance 10161.600322395
scalar OsgEarthNet.uav[15] utilizationSecCharge 84278.703470082
scalar OsgEarthNet.uav[15] utilizationSecIdle 14828.699973031
scalar OsgEarthNet.uav[15] utilizationEnergyMission 64777.181003571
scalar OsgEarthNet.uav[15] utilizationEnergyMaintenance 47397.313228607
scalar OsgEarthNet.uav[15] utilizationEnergyCharge 112514.94677734
scalar OsgEarthNet.uav[15] utilizationEnergyOverdrawMission 0
scalar OsgEarthNet.uav[15] utilizationEnergyOverdrawMaintenance 93.069534301758
scalar OsgEarthNet.uav[15] utilizationCountMissions 23
scalar OsgEarthNet.uav[15] utilizationCountManeuversMission 386
scalar OsgEarthNet.uav[15] utilizationCountManeuversMaintenance 46
scalar OsgEarthNet.uav[15] utilizationCountChargeState 23
scalar OsgEarthNet.uav[15] utilizationCountOverdrawnAfterMission 1
scalar OsgEarthNet.uav[15] utilizationCountIdleState 23
scalar OsgEarthNet.uav[15] utilizationFail 0
scalar OsgEarthNet.uav[15] simulationTime 122577.64976626
scalar OsgEarthNet.uav[16] utilizationSecMission 13489.3183066
scalar OsgEarthNet.uav[16] utilizationSecMaintenance 10028.368683055
scalar OsgEarthNet.uav[16] utilizationSecCharge 85250
scalar OsgEarthNet.uav[16] utilizationSecIdle 13809.961776601
scalar OsgEarthNet.uav[16] utilizationEnergyMission 65237.354827689
scalar OsgEarthNet.uav[16] utilizationEnergyMaintenance 47076.732913971
scalar OsgEarthNet.uav[16] utilizationEnergyCharge 112850.6875
scalar OsgEarthNet.uav[16] utilizationEnergyOverdrawMission 0
scalar OsgEarthNet.uav[16] utilizationEnergyOverdrawMaintenance 60.995193481445
scalar OsgEarthNet.uav[16] utilizationCountMissions 23
scalar OsgEarthNet.uav[16] utilizationCountManeuversMission 447
scalar OsgEarthNet.uav[16] utilizationCountManeuversMaintenance 45
scalar OsgEarthNet.uav[16] utilizationCountChargeState 23
scalar OsgEarthNet.uav[16] utilizationCountOverdrawnAfterMission 1
scalar OsgEarthNet.uav[16] utilizationCountIdleState 24
scalar OsgEarthNet.uav[16] utilizationFail 0
scalar OsgEarthNet.uav[16] simulationTime 122577.64976626
scalar OsgEarthNet.uav[17] utilizationSecMission 12000.591956711
scalar OsgEarthNet.uav[17] utilizationSecMaintenance 9081.8902775756
scalar OsgEarthNet.uav[17] utilizationSecCharge 76064.111732789
scalar OsgEarthNet.uav[17] utilizationSecIdle 25431.054799181
scalar OsgEarthNet.uav[17] utilizationEnergyMission 58963.868045807
scalar OsgEarthNet.uav[17] utilizationEnergyMaintenance 41593.421535492
scalar OsgEarthNet.uav[17] utilizationEnergyCharge 100561.78564453
scalar OsgEarthNet.uav[17] utilizationEnergyOverdrawMission 0
scalar OsgEarthNet.uav[17] utilizationEnergyOverdrawMaintenance 369.3557434082
scalar OsgEarthNet.uav[17] utilizationCountMissions 21
scalar OsgEarthNet.uav[17] utilizationCountManeuversMission 368
scalar OsgEarthNet.uav[17] utilizationCountManeuversMaintenance 42
scalar OsgEarthNet.uav[17] utilizationCountChargeState 21
scalar OsgEarthNet.uav[17] utilizationCountOverdrawnAfterMission 1
scalar OsgEarthNet.uav[17] utilizationCountIdleState 21
scalar OsgEarthNet.uav[17] utilizationFail 0
scalar OsgEarthNet.uav[17] simulationTime 122577.64976626
scalar OsgEarthNet.uav[18] utilizationSecMission 8984.1647604395
scalar OsgEarthNet.uav[18] utilizationSecMaintenance 6565.775415741
scalar OsgEarthNet.uav[18] utilizationSecCharge 55211.358369255
scalar OsgEarthNet.uav[18] utilizationSecIdle 51816.350220821
scalar OsgEarthNet.uav[18] utilizationEnergyMission 44096.064571381
scalar OsgEarthNet.uav[18] utilizationEnergyMaintenance 30289.982749939
scalar OsgEarthNet.uav[18] utilizationEnergyCharge 73419.028808594
scalar OsgEarthNet.uav[18] utilizationEnergyOverdrawMission 0
scalar OsgEarthNet.uav[18] utilizationEnergyOverdrawMaintenance 250.14633178711
scalar OsgEarthNet.uav[18] utilizationCountMissions 15
scalar OsgEarthNet.uav[18] utilizationCountManeuversMission 315
scalar OsgEarthNet.uav[18] utilizationCountManeuversMaintenance 30
scalar OsgEarthNet.uav[18] utilizationCountChargeState 15
scalar OsgEarthNet.uav[18] utilizationCountOverdrawnAfterMission 1
scalar OsgEarthNet.uav[18] utilizationCountIdleState 15
scalar OsgEarthNet.uav[18] utilizationFail 0
scalar OsgEarthNet.uav[18] simulationTime 122577.64976626
scalar OsgEarthNet.uav[19] utilizationSecMission 11450.812346986
scalar OsgEarthNet.uav[19] utilizationSecMaintenance 11947.569905542
scalar OsgEarthNet.uav[19] utilizationSecCharge 84840
scalar OsgEarthNet.uav[19] utilizationSecIdle 14339.266513728
scalar OsgEarthNet.uav[19] utilizationEnergyMission 56156.620304108
scalar OsgEarthNet.uav[19] utilizationEnergyMaintenance 55005.366348267
scalar OsgEarthNet.uav[19] utilizationEnergyCharge 112305.04199219
scalar OsgEarthNet.uav[19] utilizationEnergyOverdrawMission 0
scalar OsgEarthNet.uav[19] utilizationEnergyOverdrawMaintenance 211.49742126465
scalar OsgEarthNet.uav[19] utilizationCountMissions 23
scalar OsgEarthNet.uav[19] utilizationCountManeuversMission 460
scalar OsgEarthNet.uav[19] utilizationCountManeuversMaintenance 46
scalar OsgEarthNet.uav[19] utilizationCountChargeState 23
scalar OsgEarthNet.uav[19] utilizationCountOverdrawnAfterMission 2
scalar OsgEarthNet.uav[19] utilizationCountIdleState 24
scalar OsgEarthNet.uav[19] utilizationFail 0
scalar OsgEarthNet.uav[19] simulationTime 122577.64976626
scalar OsgEarthNet.uav[20] utilizationSecMission 12343.852592259
scalar OsgEarthNet.uav[20] utilizationSecMaintenance 9175.8375217908
scalar OsgEarthNet.uav[20] utilizationSecCharge 77250
scalar OsgEarthNet.uav[20] utilizationSecIdle 23807.958652207
scalar OsgEarthNet.uav[20] utilizationEnergyMission 59834.117523193
scalar OsgEarthNet.uav[20] utilizationEnergyMaintenance 43519.583583832
scalar OsgEarthNet.uav[20] utilizationEnergyCharge 102260.64941406
scalar OsgEarthNet.uav[20] utilizationEnergyOverdrawMission 0
scalar OsgEarthNet.uav[20] utilizationEnergyOverdrawMaintenance 0
scalar OsgEarthNet.uav[20] utilizationCountMissions 21
scalar OsgEarthNet.uav[20] utilizationCountManeuversMission 379
scalar OsgEarthNet.uav[20] utilizationCountManeuversMaintenance 42
scalar OsgEarthNet.uav[20] utilizationCountChargeState 21
scalar OsgEarthNet.uav[20] utilizationCountOverdrawnAfterMission 0
scalar OsgEarthNet.uav[20] utilizationCountIdleState 22
scalar OsgEarthNet.uav[20] utilizationFail 0
scalar OsgEarthNet.uav[20] simulationTime 122577.64976626
scalar OsgEarthNet.uav[21] utilizationSecMission 13767.095701764
scalar OsgEarthNet.uav[21] utilizationSecMaintenance 9552.0416295362
scalar OsgEarthNet.uav[21] utilizationSecCharge 81226.509434957
scalar OsgEarthNet.uav[21] utilizationSecIdle 18032.002
scalar OsgEarthNet.uav[21] utilizationEnergyMission 66558.729595184
scalar OsgEarthNet.uav[21] utilizationEnergyMaintenance 43492.702449799
scalar OsgEarthNet.uav[21] utilizationEnergyCharge 107449.33422852
scalar OsgEarthNet.uav[21] utilizationEnergyOverdrawMission 0
scalar OsgEarthNet.uav[21] utilizationEnergyOverdrawMaintenance 0
scalar OsgEarthNet.uav[21] utilizationCountMissions 23
scalar OsgEarthNet.uav[21] utilizationCountManeuversMission 405
scalar OsgEarthNet.uav[21] utilizationCountManeuversMaintenance 46
scalar OsgEarthNet.uav[21] utilizationCountChargeState 23
scalar OsgEarthNet.uav[21] utilizationCountOverdrawnAfterMission 0
scalar OsgEarthNet.uav[21] utilizationCountIdleState 23
scalar OsgEarthNet.uav[21] utilizationFail 0
scalar OsgEarthNet.uav[21] simulationTime 122577.64976626
scalar OsgEarthNet.uav[22] utilizationSecMission 13317.208491532
scalar OsgEarthNet.uav[22] utilizationSecMaintenance 9598.4392747244
scalar OsgEarthNet.uav[22] utilizationSecCharge 81520
scalar OsgEarthNet.uav[22] utilizationSecIdle 18142.001
scalar OsgEarthNet.uav[22] utilizationEnergyMission 64202.810503459
scalar OsgEarthNet.uav[22] utilizationEnergyMaintenance 45472.522827148
scalar OsgEarthNet.uav[22] utilizationEnergyCharge 108037.74560547
scalar OsgEarthNet.uav[22] utilizationEnergyOverdrawMission 0
scalar OsgEarthNet.uav[22] utilizationEnergyOverdrawMaintenance 38.801240921021
scalar OsgEarthNet.uav[22] utilizationCountMissions 22
scalar OsgEarthNet.uav[22] utilizationCountManeuversMission 395
scalar OsgEarthNet.uav[22] utilizationCountManeuversMaintenance 45
scalar OsgEarthNet.uav[22] utilizationCountChargeState 22
scalar OsgEarthNet.uav[22] utilizationCountOverdrawnAfterMission 2
scalar OsgEarthNet.uav[22] utilizationCountIdleState 23
scalar OsgEarthNet.uav[22] utilizationFail 0
scalar OsgEarthNet.uav[22] simulationTime 122577.64976626
scalar OsgEarthNet.uav[23] utilizationSecMission 13740.572512642
scalar OsgEarthNet.uav[23] utilizationSecMaintenance 8537.5280535775
scalar OsgEarthNet.uav[23] utilizationSecCharge 78379.604934354
scalar OsgEarthNet.uav[23] utilizationSecIdle 21919.943265683
scalar OsgEarthNet.uav[23] utilizationEnergyMission 67377.588142395
scalar OsgEarthNet.uav[23] utilizationEnergyMaintenance 40045.942390442
scalar OsgEarthNet.uav[23] utilizationEnergyCharge 104229.83764648
scalar OsgEarthNet.uav[23] utilizationEnergyOverdrawMission 0
scalar OsgEarthNet.uav[23] utilizationEnergyOverdrawMaintenance 0
scalar OsgEarthNet.uav[23] utilizationCountMissions 22
scalar OsgEarthNet.uav[23] utilizationCountManeuversMission 471
scalar OsgEarthNet.uav[23] utilizationCountManeuversMaintenance 44
scalar OsgEarthNet.uav[23] utilizationCountChargeState 22
scalar OsgEarthNet.uav[23] utilizationCountOverdrawnAfterMission 0
scalar OsgEarthNet.uav[23] utilizationCountIdleState 22
scalar OsgEarthNet.uav[23] utilizationFail 0
scalar OsgEarthNet.uav[23] simulationTime 122577.64976626
scalar OsgEarthNet.uav[24] utilizationSecMission 6347.4266604141
scalar OsgEarthNet.uav[24] utilizationSecMaintenance 4842.7971291968
scalar OsgEarthNet.uav[24] utilizationSecCharge 39920
scalar OsgEarthNet.uav[24] utilizationSecIdle 71467.424976646
scalar OsgEarthNet.uav[24] utilizationEnergyMission 30765.453826904
scalar OsgEarthNet.uav[24] utilizationEnergyMaintenance 22881.742160797
scalar OsgEarthNet.uav[24] utilizationEnergyCharge 52416.680664062
scalar OsgEarthNet.uav[24] utilizationEnergyOverdrawMission 0
scalar OsgEarthNet.uav[24] utilizationEnergyOverdrawMaintenance 0
scalar OsgEarthNet.uav[24] utilizationCountMissions 11
scalar OsgEarthNet.uav[24] utilizationCountManeuversMission 197
scalar OsgEarthNet.uav[24] utilizationCountManeuversMaintenance 22
scalar OsgEarthNet.uav[24] utilizationCountChargeState 11
scalar OsgEarthNet.uav[24] utilizationCountOverdrawnAfterMission 0
scalar OsgEarthNet.uav[24] utilizationCountIdleState 12
scalar OsgEarthNet.uav[24] utilizationFail 0
scalar OsgEarthNet.uav[24] simulationTime 122577.64976626
scalar OsgEarthNet.uav[25] utilizationSecMission 2218.0667791698
scalar OsgEarthNet.uav[25] utilizationSecMaintenance 905.92454357235
scalar OsgEarthNet.uav[25] utilizationSecCharge 10540
scalar OsgEarthNet.uav[25] utilizationSecIdle 108913.65744351
scalar OsgEarthNet.uav[25] utilizationEnergyMission 9668.7611083984
scalar OsgEarthNet.uav[25] utilizationEnergyMaintenance 4065.6853065491
scalar OsgEarthNet.uav[25] utilizationEnergyCharge 13632.696289062
scalar OsgEarthNet.uav[25] utilizationEnergyOverdrawMission 0
scalar OsgEarthNet.uav[25] utilizationEnergyOverdrawMaintenance 0
scalar OsgEarthNet.uav[25] utilizationCountMissions 3
scalar OsgEarthNet.uav[25] utilizationCountManeuversMission 37
scalar OsgEarthNet.uav[25] utilizationCountManeuversMaintenance 6
scalar OsgEarthNet.uav[25] utilizationCountChargeState 3
scalar OsgEarthNet.uav[25] utilizationCountOverdrawnAfterMission 0
scalar OsgEarthNet.uav[25] utilizationCountIdleState 4
scalar OsgEarthNet.uav[25] utilizationFail 0
scalar OsgEarthNet.uav[25] simulationTime 122577.64976626
scalar OsgEarthNet.uav[26] utilizationSecMission 735.14326557473
scalar OsgEarthNet.uav[26] utilizationSecMaintenance 350.53687742834
scalar OsgEarthNet.uav[26] utilizationSecCharge 3680
scalar OsgEarthNet.uav[26] utilizationSecIdle 117811.96862325
scalar OsgEarthNet.uav[26] utilizationEnergyMission 3357.5402069092
scalar OsgEarthNet.uav[26] utilizationEnergyMaintenance 1559.5592880249
scalar OsgEarthNet.uav[26] utilizationEnergyCharge 4913.8247070312
scalar OsgEarthNet.uav[26] utilizationEnergyOverdrawMission 0
scalar OsgEarthNet.uav[26] utilizationEnergyOverdrawMaintenance 0
scalar OsgEarthNet.uav[26] utilizationCountMissions 1
scalar OsgEarthNet.uav[26] utilizationCountManeuversMission 11
scalar OsgEarthNet.uav[26] utilizationCountManeuversMaintenance 2
scalar OsgEarthNet.uav[26] utilizationCountChargeState 1
scalar OsgEarthNet.uav[26] utilizationCountOverdrawnAfterMission 0
scalar OsgEarthNet.uav[26] utilizationCountIdleState 2
scalar OsgEarthNet.uav[26] utilizationFail 0
scalar OsgEarthNet.uav[26] simulationTime 122577.64976626
scalar OsgEarthNet.uav[27] utilizationSecMission 13830.926132291
scalar OsgEarthNet.uav[27] utilizationSecMaintenance 11004.099430748
scalar OsgEarthNet.uav[27] utilizationSecCharge 85110.623203217
scalar OsgEarthNet.uav[27] utilizationSecIdle 12632
scalar OsgEarthNet.uav[27] utilizationEnergyMission 66575.34948349
scalar OsgEarthNet.uav[27] utilizationEnergyMaintenance 50765.244415283
scalar OsgEarthNet.uav[27] utilizationEnergyCharge 112647.63525391
scalar OsgEarthNet.uav[27] utilizationEnergyOverdrawMission 0
scalar OsgEarthNet.uav[27] utilizationEnergyOverdrawMaintenance 0.35946321487427
scalar OsgEarthNet.uav[27] utilizationCountMissions 24
scalar OsgEarthNet.uav[27] utilizationCountManeuversMission 413
scalar OsgEarthNet.uav[27] utilizationCountManeuversMaintenance 47
scalar OsgEarthNet.uav[27] utilizationCountChargeState 24
scalar OsgEarthNet.uav[27] utilizationCountOverdrawnAfterMission 1
scalar OsgEarthNet.uav[27] utilizationCountIdleState 24
scalar OsgEarthNet.uav[27] utilizationFail 0
scalar OsgEarthNet.uav[27] simulationTime 122577.64976626
scalar OsgEarthNet.uav[28] utilizationSecMission 1500
scalar OsgEarthNet.uav[28] utilizationSecMaintenance 525.78155789015
scalar OsgEarthNet.uav[28] utilizationSecCharge 7320
scalar OsgEarthNet.uav[28] utilizationSecIdle 113231.86720837
scalar OsgEarthNet.uav[28] utilizationEnergyMission 7602.556602478
scalar OsgEarthNet.uav[28] utilizationEnergyMaintenance 2316.7036361694
scalar OsgEarthNet.uav[28] utilizationEnergyCharge 9638.7807617188
scalar OsgEarthNet.uav[28] utilizationEnergyOverdrawMission 0
scalar OsgEarthNet.uav[28] utilizationEnergyOverdrawMaintenance 0
scalar OsgEarthNet.uav[28] utilizationCountMissions 2
scalar OsgEarthNet.uav[28] utilizationCountManeuversMission 75
scalar OsgEarthNet.uav[28] utilizationCountManeuversMaintenance 4
scalar OsgEarthNet.uav[28] utilizationCountChargeState 2
scalar OsgEarthNet.uav[28] utilizationCountOverdrawnAfterMission 0
scalar OsgEarthNet.uav[28] utilizationCountIdleState 3
scalar OsgEarthNet.uav[28] utilizationFail 0
scalar OsgEarthNet.uav[28] simulationTime 122577.64976626
scalar OsgEarthNet.uav[29] utilizationSecMission 600
scalar OsgEarthNet.uav[29] utilizationSecMaintenance 363.8841636065
scalar OsgEarthNet.uav[29] utilizationSecCharge 3650
scalar OsgEarthNet.uav[29] utilizationSecIdle 117963.76460265
scalar OsgEarthNet.uav[29] utilizationEnergyMission 2987.532661438
scalar OsgEarthNet.uav[29] utilizationEnergyMaintenance 1800.62342453
scalar OsgEarthNet.uav[29] utilizationEnergyCharge 4833.21484375
scalar OsgEarthNet.uav[29] utilizationEnergyOverdrawMission 0
scalar OsgEarthNet.uav[29] utilizationEnergyOverdrawMaintenance 0
scalar OsgEarthNet.uav[29] utilizationCountMissions 1
scalar OsgEarthNet.uav[29] utilizationCountManeuversMission 30
scalar OsgEarthNet.uav[29] utilizationCountManeuversMaintenance 2
scalar OsgEarthNet.uav[29] utilizationCountChargeState 1
scalar OsgEarthNet.uav[29] utilizationCountOverdrawnAfterMission 0
scalar OsgEarthNet.uav[29] utilizationCountIdleState 2
scalar OsgEarthNet.uav[29] utilizationFail 0
scalar OsgEarthNet.uav[29] simulationTime 122577.64976626
scalar OsgEarthNet.uav[30] utilizationSecMission 702.04634144488
scalar OsgEarthNet.uav[30] utilizationSecMaintenance 388.81560937695
scalar OsgEarthNet.uav[30] utilizationSecCharge 3800
scalar OsgEarthNet.uav[30] utilizationSecIdle 117686.78681543
scalar OsgEarthNet.uav[30] utilizationEnergyMission 3273.441986084
scalar OsgEarthNet.uav[30] utilizationEnergyMaintenance 1801.7173080444
scalar OsgEarthNet.uav[30] utilizationEnergyCharge 5075.154296875
scalar OsgEarthNet.uav[30] utilizationEnergyOverdrawMission 0
scalar OsgEarthNet.uav[30] utilizationEnergyOverdrawMaintenance 0
scalar OsgEarthNet.uav[30] utilizationCountMissions 1
scalar OsgEarthNet.uav[30] utilizationCountManeuversMission 10
scalar OsgEarthNet.uav[30] utilizationCountManeuversMaintenance 2
scalar OsgEarthNet.uav[30] utilizationCountChargeState 1
scalar OsgEarthNet.uav[30] utilizationCountOverdrawnAfterMission 0
scalar OsgEarthNet.uav[30] utilizationCountIdleState 2
scalar OsgEarthNet.uav[30] utilizationFail 0
scalar OsgEarthNet.uav[30] simulationTime 122577.64976626
scalar OsgEarthNet.uav[31] utilizationSecMission 420
scalar OsgEarthNet.uav[31] utilizationSecMaintenance 507.16988087142
scalar OsgEarthNet.uav[31] utilizationSecCharge 3560
scalar OsgEarthNet.uav[31] utilizationSecIdle 118090.47888539
scalar OsgEarthNet.uav[31] utilizationEnergyMission 2223.9426689148
scalar OsgEarthNet.uav[31] utilizationEnergyMaintenance 2371.8113517761
scalar OsgEarthNet.uav[31] utilizationEnergyCharge 4643.560546875
scalar OsgEarthNet.uav[31] utilizationEnergyOverdrawMission 0
scalar OsgEarthNet.uav[31] utilizationEnergyOverdrawMaintenance 0
scalar OsgEarthNet.uav[31] utilizationCountMissions 1
scalar OsgEarthNet.uav[31] utilizationCountManeuversMission 21
scalar OsgEarthNet.uav[31] utilizationCountManeuversMaintenance 2
scalar OsgEarthNet.uav[31] utilizationCountChargeState 1
scalar OsgEarthNet.uav[31] utilizationCountOverdrawnAfterMission 0
scalar OsgEarthNet.uav[31] utilizationCountIdleState 2
scalar OsgEarthNet.uav[31] utilizationFail 0
scalar OsgEarthNet.uav[31] simulationTime 122577.64976626
scalar OsgEarthNet.uav[32] utilizationSecMission 13799.820782105
scalar OsgEarthNet.uav[32] utilizationSecMaintenance 9322.4984681221
scalar OsgEarthNet.uav[32] utilizationSecCharge 84920
scalar OsgEarthNet.uav[32] utilizationSecIdle 14535.329516029
scalar OsgEarthNet.uav[32] utilizationEnergyMission 65716.014767455
scalar OsgEarthNet.uav[32] utilizationEnergyMaintenance 44342.318836212
scalar OsgEarthNet.uav[32] utilizationEnergyCharge 112070.60400391
scalar OsgEarthNet.uav[32] utilizationEnergyOverdrawMission 0
scalar OsgEarthNet.uav[32] utilizationEnergyOverdrawMaintenance 0
scalar OsgEarthNet.uav[32] utilizationCountMissions 23
scalar OsgEarthNet.uav[32] utilizationCountManeuversMission 433
scalar OsgEarthNet.uav[32] utilizationCountManeuversMaintenance 45
scalar OsgEarthNet.uav[32] utilizationCountChargeState 23
scalar OsgEarthNet.uav[32] utilizationCountOverdrawnAfterMission 0
scalar OsgEarthNet.uav[32] utilizationCountIdleState 24
scalar OsgEarthNet.uav[32] utilizationFail 0
scalar OsgEarthNet.uav[32] simulationTime 122577.64976626
scalar OsgEarthNet.uav[33] utilizationSecMission 750.20472747826
scalar OsgEarthNet.uav[33] utilizationSecMaintenance 361.53438900264
scalar OsgEarthNet.uav[33] utilizationSecCharge 3820
scalar OsgEarthNet.uav[33] utilizationSecIdle 117645.90964978
scalar OsgEarthNet.uav[33] utilizationEnergyMission 3281.1015014648
scalar OsgEarthNet.uav[33] utilizationEnergyMaintenance 1853.6152572632
scalar OsgEarthNet.uav[33] utilizationEnergyCharge 5134.71484375
scalar OsgEarthNet.uav[33] utilizationEnergyOverdrawMission 0
scalar OsgEarthNet.uav[33] utilizationEnergyOverdrawMaintenance 0
scalar OsgEarthNet.uav[33] utilizationCountMissions 1
scalar OsgEarthNet.uav[33] utilizationCountManeuversMission 11
scalar OsgEarthNet.uav[33] utilizationCountManeuversMaintenance 2
scalar OsgEarthNet.uav[33] utilizationCountChargeState 1
scalar OsgEarthNet.uav[33] utilizationCountOverdrawnAfterMission 0
scalar OsgEarthNet.uav[33] utilizationCountIdleState 2
scalar OsgEarthNet.uav[33] utilizationFail 0
scalar OsgEarthNet.uav[33] simulationTime 122577.64976626
scalar OsgEarthNet.uav[34] utilizationSecMission 440
scalar OsgEarthNet.uav[34] utilizationSecMaintenance 507.16988087142
scalar OsgEarthNet.uav[34] utilizationSecCharge 3730
scalar OsgEarthNet.uav[34] utilizationSecIdle 117900.47888539
scalar OsgEarthNet.uav[34] utilizationEnergyMission 2409.8552055359
scalar OsgEarthNet.uav[34] utilizationEnergyMaintenance 2464.3672599793
scalar OsgEarthNet.uav[34] utilizationEnergyCharge 4958.1010742188
scalar OsgEarthNet.uav[34] utilizationEnergyOverdrawMission 0
scalar OsgEarthNet.uav[34] utilizationEnergyOverdrawMaintenance 0
scalar OsgEarthNet.uav[34] utilizationCountMissions 1
scalar OsgEarthNet.uav[34] utilizationCountManeuversMission 22
scalar OsgEarthNet.uav[34] utilizationCountManeuversMaintenance 2
scalar OsgEarthNet.uav[34] utilizationCountChargeState 1
scalar OsgEarthNet.uav[34] utilizationCountOverdrawnAfterMission 0
scalar OsgEarthNet.uav[34] utilizationCountIdleState 2
scalar OsgEarthNet.uav[34] utilizationFail 0
scalar OsgEarthNet.uav[34] simulationTime 122577.64976626
scalar OsgEarthNet.uav[35] utilizationSecMission 11191.126598206
scalar OsgEarthNet.uav[35] utilizationSecMaintenance 8491.4587301259
scalar OsgEarthNet.uav[35] utilizationSecCharge 66833.060437924
scalar OsgEarthNet.uav[35] utilizationSecIdle 36062.003
scalar OsgEarthNet.uav[35] utilizationEnergyMission 52881.267059326
scalar OsgEarthNet.uav[35] utilizationEnergyMaintenance 38599.77917099
scalar OsgEarthNet.uav[35] utilizationEnergyCharge 88648.082275391
scalar OsgEarthNet.uav[35] utilizationEnergyOverdrawMission 0
scalar OsgEarthNet.uav[35] utilizationEnergyOverdrawMaintenance 69.052024841309
scalar OsgEarthNet.uav[35] utilizationCountMissions 19
scalar OsgEarthNet.uav[35] utilizationCountManeuversMission 302
scalar OsgEarthNet.uav[35] utilizationCountManeuversMaintenance 38
scalar OsgEarthNet.uav[35] utilizationCountChargeState 19
scalar OsgEarthNet.uav[35] utilizationCountOverdrawnAfterMission 1
scalar OsgEarthNet.uav[35] utilizationCountIdleState 19
scalar OsgEarthNet.uav[35] utilizationFail 0
scalar OsgEarthNet.uav[35] simulationTime 122577.64976626
scalar OsgEarthNet.uav[36] utilizationSecMission 7232.2969385016
scalar OsgEarthNet.uav[36] utilizationSecMaintenance 4887.9231247135
scalar OsgEarthNet.uav[36] utilizationSecCharge 43780
scalar OsgEarthNet.uav[36] utilizationSecIdle 66677.428703041
scalar OsgEarthNet.uav[36] utilizationEnergyMission 34590.113689423
scalar OsgEarthNet.uav[36] utilizationEnergyMaintenance 22756.751369476
scalar OsgEarthNet.uav[36] utilizationEnergyCharge 57768.813476562
scalar OsgEarthNet.uav[36] utilizationEnergyOverdrawMission 0
scalar OsgEarthNet.uav[36] utilizationEnergyOverdrawMaintenance 0
scalar OsgEarthNet.uav[36] utilizationCountMissions 12
scalar OsgEarthNet.uav[36] utilizationCountManeuversMission 191
scalar OsgEarthNet.uav[36] utilizationCountManeuversMaintenance 24
scalar OsgEarthNet.uav[36] utilizationCountChargeState 12
scalar OsgEarthNet.uav[36] utilizationCountOverdrawnAfterMission 0
scalar OsgEarthNet.uav[36] utilizationCountIdleState 13
scalar OsgEarthNet.uav[36] utilizationFail 0
scalar OsgEarthNet.uav[36] simulationTime 122577.64976626
scalar OsgEarthNet.uav[37] utilizationSecMission 11738.810702464
scalar OsgEarthNet.uav[37] utilizationSecMaintenance 8124.3161818189
scalar OsgEarthNet.uav[37] utilizationSecCharge 71087.115985975
scalar OsgEarthNet.uav[37] utilizationSecIdle 31627.405895999
scalar OsgEarthNet.uav[37] utilizationEnergyMission 57752.986213684
scalar OsgEarthNet.uav[37] utilizationEnergyMaintenance 38809.155838013
scalar OsgEarthNet.uav[37] utilizationEnergyCharge 94838.962402344
scalar OsgEarthNet.uav[37] utilizationEnergyOverdrawMission 0
scalar OsgEarthNet.uav[37] utilizationEnergyOverdrawMaintenance 0
scalar OsgEarthNet.uav[37] utilizationCountMissions 20
scalar OsgEarthNet.uav[37] utilizationCountManeuversMission 404
scalar OsgEarthNet.uav[37] utilizationCountManeuversMaintenance 40
scalar OsgEarthNet.uav[37] utilizationCountChargeState 20
scalar OsgEarthNet.uav[37] utilizationCountOverdrawnAfterMission 0
scalar OsgEarthNet.uav[37] utilizationCountIdleState 20
scalar OsgEarthNet.uav[37] utilizationFail 0
scalar OsgEarthNet.uav[37] simulationTime 122577.64976626
scalar OsgEarthNet.uav[38] utilizationSecMission 12058.119615321
scalar OsgEarthNet.uav[38] utilizationSecMaintenance 8404.7157355893
scalar OsgEarthNet.uav[38] utilizationSecCharge 70922.811415346
scalar OsgEarthNet.uav[38] utilizationSecIdle 31192.002
scalar OsgEarthNet.uav[38] utilizationEnergyMission 58892.911598206
scalar OsgEarthNet.uav[38] utilizationEnergyMaintenance 38575.176589966
scalar OsgEarthNet.uav[38] utilizationEnergyCharge 94146.544189453
scalar OsgEarthNet.uav[38] utilizationEnergyOverdrawMission 0
scalar OsgEarthNet.uav[38] utilizationEnergyOverdrawMaintenance 0
scalar OsgEarthNet.uav[38] utilizationCountMissions 20
scalar OsgEarthNet.uav[38] utilizationCountManeuversMission 338
scalar OsgEarthNet.uav[38] utilizationCountManeuversMaintenance 40
scalar OsgEarthNet.uav[38] utilizationCountChargeState 20
scalar OsgEarthNet.uav[38] utilizationCountOverdrawnAfterMission 0
scalar OsgEarthNet.uav[38] utilizationCountIdleState 20
scalar OsgEarthNet.uav[38] utilizationFail 0
scalar OsgEarthNet.uav[38] simulationTime 122577.64976626
scalar OsgEarthNet.uav[39] utilizationSecMission 680
scalar OsgEarthNet.uav[39] utilizationSecMaintenance 363.8841636065
scalar OsgEarthNet.uav[39] utilizationSecCharge 3720
scalar OsgEarthNet.uav[39] utilizationSecIdle 117813.76460265
scalar OsgEarthNet.uav[39] utilizationEnergyMission 3460.5973358154
scalar OsgEarthNet.uav[39] utilizationEnergyMaintenance 1794.7582511902
scalar OsgEarthNet.uav[39] utilizationEnergyCharge 4918.8056640625
scalar OsgEarthNet.uav[39] utilizationEnergyOverdrawMission 0
scalar OsgEarthNet.uav[39] utilizationEnergyOverdrawMaintenance 0
scalar OsgEarthNet.uav[39] utilizationCountMissions 1
scalar OsgEarthNet.uav[39] utilizationCountManeuversMission 34
scalar OsgEarthNet.uav[39] utilizationCountManeuversMaintenance 2
scalar OsgEarthNet.uav[39] utilizationCountChargeState 1
scalar OsgEarthNet.uav[39] utilizationCountOverdrawnAfterMission 0
scalar OsgEarthNet.uav[39] utilizationCountIdleState 2
scalar OsgEarthNet.uav[39] utilizationFail 0
scalar OsgEarthNet.uav[39] simulationTime 122577.64976626
scalar OsgEarthNet.uav[40] utilizationSecMission 7518.5672221002
scalar OsgEarthNet.uav[40] utilizationSecMaintenance 5639.4376455362
scalar OsgEarthNet.uav[40] utilizationSecCharge 47890
scalar OsgEarthNet.uav[40] utilizationSecIdle 61529.64389862
scalar OsgEarthNet.uav[40] utilizationEnergyMission 37003.230636597
scalar OsgEarthNet.uav[40] utilizationEnergyMaintenance 26003.777881622
scalar OsgEarthNet.uav[40] utilizationEnergyCharge 63335.230957031
scalar OsgEarthNet.uav[40] utilizationEnergyOverdrawMission 0
scalar OsgEarthNet.uav[40] utilizationEnergyOverdrawMaintenance 0
scalar OsgEarthNet.uav[40] utilizationCountMissions 13
scalar OsgEarthNet.uav[40] utilizationCountManeuversMission 247
scalar OsgEarthNet.uav[40] utilizationCountManeuversMaintenance 26
scalar OsgEarthNet.uav[40] utilizationCountChargeState 13
scalar OsgEarthNet.uav[40] utilizationCountOverdrawnAfterMission 0
scalar OsgEarthNet.uav[40] utilizationCountIdleState 14
scalar OsgEarthNet.uav[40] utilizationFail 0
scalar OsgEarthNet.uav[40] simulationTime 122577.64976626
scalar OsgEarthNet.uav[41] utilizationSecMission 13484.561017838
scalar OsgEarthNet.uav[41] utilizationSecMaintenance 10563.472766279
scalar OsgEarthNet.uav[41] utilizationSecCharge 83977.613982139
scalar OsgEarthNet.uav[41] utilizationSecIdle 14552.001
scalar OsgEarthNet.uav[41] utilizationEnergyMission 66103.647369385
scalar OsgEarthNet.uav[41] utilizationEnergyMaintenance 48973.257385254
scalar OsgEarthNet.uav[41] utilizationEnergyCharge 110812.03997803
scalar OsgEarthNet.uav[41] utilizationEnergyOverdrawMission 0
scalar OsgEarthNet.uav[41] utilizationEnergyOverdrawMaintenance 0
scalar OsgEarthNet.uav[41] utilizationCountMissions 24
scalar OsgEarthNet.uav[41] utilizationCountManeuversMission 474
scalar OsgEarthNet.uav[41] utilizationCountManeuversMaintenance 48
scalar OsgEarthNet.uav[41] utilizationCountChargeState 24
scalar OsgEarthNet.uav[41] utilizationCountOverdrawnAfterMission 0
scalar OsgEarthNet.uav[41] utilizationCountIdleState 24
scalar OsgEarthNet.uav[41] utilizationFail 0
scalar OsgEarthNet.uav[41] simulationTime 122577.64976626
scalar OsgEarthNet.uav[42] utilizationSecMission 887.1741082606
scalar OsgEarthNet.uav[42] utilizationSecMaintenance 181.20511066264
scalar OsgEarthNet.uav[42] utilizationSecCharge 3810
scalar OsgEarthNet.uav[42] utilizationSecIdle 117699.26954733
scalar OsgEarthNet.uav[42] utilizationEnergyMission 4194.519607544
scalar OsgEarthNet.uav[42] utilizationEnergyMaintenance 779.90510177612
scalar OsgEarthNet.uav[42] utilizationEnergyCharge 5086.30859375
scalar OsgEarthNet.uav[42] utilizationEnergyOverdrawMission 0
scalar OsgEarthNet.uav[42] utilizationEnergyOverdrawMaintenance 0
scalar OsgEarthNet.uav[42] utilizationCountMissions 1
scalar OsgEarthNet.uav[42] utilizationCountManeuversMission 14
scalar OsgEarthNet.uav[42] utilizationCountManeuversMaintenance 2
scalar OsgEarthNet.uav[42] utilizationCountChargeState 1
scalar OsgEarthNet.uav[42] utilizationCountOverdrawnAfterMission 0
scalar OsgEarthNet.uav[42] utilizationCountIdleState 2
scalar OsgEarthNet.uav[42] utilizationFail 0
scalar OsgEarthNet.uav[42] simulationTime 122577.64976626
scalar OsgEarthNet.uav[43] utilizationSecMission 12720.828894517
scalar OsgEarthNet.uav[43] utilizationSecMaintenance 9348.683825289
scalar OsgEarthNet.uav[43] utilizationSecCharge 80470
scalar OsgEarthNet.uav[43] utilizationSecIdle 20038.136046451
scalar OsgEarthNet.uav[43] utilizationEnergyMission 63272.914253235
scalar OsgEarthNet.uav[43] utilizationEnergyMaintenance 42946.912811279
scalar OsgEarthNet.uav[43] utilizationEnergyCharge 106106.89501953
scalar OsgEarthNet.uav[43] utilizationEnergyOverdrawMission 0
scalar OsgEarthNet.uav[43] utilizationEnergyOverdrawMaintenance 72.056167602539
scalar OsgEarthNet.uav[43] utilizationCountMissions 22
scalar OsgEarthNet.uav[43] utilizationCountManeuversMission 452
scalar OsgEarthNet.uav[43] utilizationCountManeuversMaintenance 44
scalar OsgEarthNet.uav[43] utilizationCountChargeState 22
scalar OsgEarthNet.uav[43] utilizationCountOverdrawnAfterMission 1
scalar OsgEarthNet.uav[43] utilizationCountIdleState 23
scalar OsgEarthNet.uav[43] utilizationFail 0
scalar OsgEarthNet.uav[43] simulationTime 122577.64976626
scalar OsgEarthNet.uav[44] utilizationSecMission 3822.1445177116
scalar OsgEarthNet.uav[44] utilizationSecMaintenance 3313.7418805468
scalar OsgEarthNet.uav[44] utilizationSecCharge 25440
scalar OsgEarthNet.uav[44] utilizationSecIdle 90001.762367998
scalar OsgEarthNet.uav[44] utilizationEnergyMission 18022.5675354
scalar OsgEarthNet.uav[44] utilizationEnergyMaintenance 15580.262714386
scalar OsgEarthNet.uav[44] utilizationEnergyCharge 33425.9375
scalar OsgEarthNet.uav[44] utilizationEnergyOverdrawMission 0
scalar OsgEarthNet.uav[44] utilizationEnergyOverdrawMaintenance 0
scalar OsgEarthNet.uav[44] utilizationCountMissions 7
scalar OsgEarthNet.uav[44] utilizationCountManeuversMission 113
scalar OsgEarthNet.uav[44] utilizationCountManeuversMaintenance 14
scalar OsgEarthNet.uav[44] utilizationCountChargeState 7
scalar OsgEarthNet.uav[44] utilizationCountOverdrawnAfterMission 0
scalar OsgEarthNet.uav[44] utilizationCountIdleState 8
scalar OsgEarthNet.uav[44] utilizationFail 0
scalar OsgEarthNet.uav[44] simulationTime 122577.64976626
scalar OsgEarthNet.uav[45] utilizationSecMission 3839.2884945629
scalar OsgEarthNet.uav[45] utilizationSecMaintenance 2544.7185879599
scalar OsgEarthNet.uav[45] utilizationSecCharge 22490
scalar OsgEarthNet.uav[45] utilizationSecIdle 93703.641683734
scalar OsgEarthNet.uav[45] utilizationEnergyMission 18262.758983612
scalar OsgEarthNet.uav[45] utilizationEnergyMaintenance 11676.40883255
scalar OsgEarthNet.uav[45] utilizationEnergyCharge 29737.931152344
scalar OsgEarthNet.uav[45] utilizationEnergyOverdrawMission 0
scalar OsgEarthNet.uav[45] utilizationEnergyOverdrawMaintenance 0
scalar OsgEarthNet.uav[45] utilizationCountMissions 6
scalar OsgEarthNet.uav[45] utilizationCountManeuversMission 126
scalar OsgEarthNet.uav[45] utilizationCountManeuversMaintenance 12
scalar OsgEarthNet.uav[45] utilizationCountChargeState 6
scalar OsgEarthNet.uav[45] utilizationCountOverdrawnAfterMission 0
scalar OsgEarthNet.uav[45] utilizationCountIdleState 7
scalar OsgEarthNet.uav[45] utilizationFail 0
scalar OsgEarthNet.uav[45] simulationTime 122577.64976626
scalar OsgEarthNet.uav[46] utilizationSecMission 9127.3263788433
scalar OsgEarthNet.uav[46] utilizationSecMaintenance 8198.5006560953
scalar OsgEarthNet.uav[46] utilizationSecCharge 58900
scalar OsgEarthNet.uav[46] utilizationSecIdle 46351.821731318
scalar OsgEarthNet.uav[46] utilizationEnergyMission 45457.493301392
scalar OsgEarthNet.uav[46] utilizationEnergyMaintenance 37510.741940205
scalar OsgEarthNet.uav[46] utilizationEnergyCharge 77913.271484375
scalar OsgEarthNet.uav[46] utilizationEnergyOverdrawMission 0
scalar OsgEarthNet.uav[46] utilizationEnergyOverdrawMaintenance 0
scalar OsgEarthNet.uav[46] utilizationCountMissions 17
scalar OsgEarthNet.uav[46] utilizationCountManeuversMission 332
scalar OsgEarthNet.uav[46] utilizationCountManeuversMaintenance 34
scalar OsgEarthNet.uav[46] utilizationCountChargeState 16
scalar OsgEarthNet.uav[46] utilizationCountOverdrawnAfterMission 0
scalar OsgEarthNet.uav[46] utilizationCountIdleState 17
scalar OsgEarthNet.uav[46] utilizationFail 0
scalar OsgEarthNet.uav[46] simulationTime 122577.64976626
scalar OsgEarthNet.uav[47] utilizationSecMission 3895.553301835
scalar OsgEarthNet.uav[47] utilizationSecMaintenance 3299.8976452753
scalar OsgEarthNet.uav[47] utilizationSecCharge 25760
scalar OsgEarthNet.uav[47] utilizationSecIdle 89622.197819146
scalar OsgEarthNet.uav[47] utilizationEnergyMission 19224.919269562
scalar OsgEarthNet.uav[47] utilizationEnergyMaintenance 15498.729827881
scalar OsgEarthNet.uav[47] utilizationEnergyCharge 34132.309082031
scalar OsgEarthNet.uav[47] utilizationEnergyOverdrawMission 0
scalar OsgEarthNet.uav[47] utilizationEnergyOverdrawMaintenance 140.18772888184
scalar OsgEarthNet.uav[47] utilizationCountMissions 7
scalar OsgEarthNet.uav[47] utilizationCountManeuversMission 172
scalar OsgEarthNet.uav[47] utilizationCountManeuversMaintenance 14
scalar OsgEarthNet.uav[47] utilizationCountChargeState 7
scalar OsgEarthNet.uav[47] utilizationCountOverdrawnAfterMission 1
scalar OsgEarthNet.uav[47] utilizationCountIdleState 8
scalar OsgEarthNet.uav[47] utilizationFail 0
scalar OsgEarthNet.uav[47] simulationTime 122577.64976626
scalar OsgEarthNet.uav[48] utilizationSecMission 12426.713495708
scalar OsgEarthNet.uav[48] utilizationSecMaintenance 10243.060343203
scalar OsgEarthNet.uav[48] utilizationSecCharge 80680
scalar OsgEarthNet.uav[48] utilizationSecIdle 19227.874927346
scalar OsgEarthNet.uav[48] utilizationEnergyMission 59576.3707851
scalar OsgEarthNet.uav[48] utilizationEnergyMaintenance 47640.919006348
scalar OsgEarthNet.uav[48] utilizationEnergyCharge 106664.83642578
scalar OsgEarthNet.uav[48] utilizationEnergyOverdrawMission 0
scalar OsgEarthNet.uav[48] utilizationEnergyOverdrawMaintenance 0
scalar OsgEarthNet.uav[48] utilizationCountMissions 22
scalar OsgEarthNet.uav[48] utilizationCountManeuversMission 457
scalar OsgEarthNet.uav[48] utilizationCountManeuversMaintenance 45
scalar OsgEarthNet.uav[48] utilizationCountChargeState 22
scalar OsgEarthNet.uav[48] utilizationCountOverdrawnAfterMission 0
scalar OsgEarthNet.uav[48] utilizationCountIdleState 23
scalar OsgEarthNet.uav[48] utilizationFail 0
scalar OsgEarthNet.uav[48] simulationTime 122577.64976626
scalar OsgEarthNet.uav[49] utilizationSecMission 12725.818600371
scalar OsgEarthNet.uav[49] utilizationSecMaintenance 9387.8131382427
scalar OsgEarthNet.uav[49] utilizationSecCharge 78882.013027643
scalar OsgEarthNet.uav[49] utilizationSecIdle 21582.004
scalar OsgEarthNet.uav[49] utilizationEnergyMission 62820.013385773
scalar OsgEarthNet.uav[49] utilizationEnergyMaintenance 43924.689319611
scalar OsgEarthNet.uav[49] utilizationEnergyCharge 105032.76586914
scalar OsgEarthNet.uav[49] utilizationEnergyOverdrawMission 0
scalar OsgEarthNet.uav[49] utilizationEnergyOverdrawMaintenance 0
scalar OsgEarthNet.uav[49] utilizationCountMissions 22
scalar OsgEarthNet.uav[49] utilizationCountManeuversMission 426
scalar OsgEarthNet.uav[49] utilizationCountManeuversMaintenance 44
scalar OsgEarthNet.uav[49] utilizationCountChargeState 22
scalar OsgEarthNet.uav[49] utilizationCountOverdrawnAfterMission 0
scalar OsgEarthNet.uav[49] utilizationCountIdleState 22
scalar OsgEarthNet.uav[49] utilizationFail 0
scalar OsgEarthNet.uav[49] simulationTime 122577.64976626
scalar OsgEarthNet.uav[50] utilizationSecMission 12960.01343437
scalar OsgEarthNet.uav[50] utilizationSecMaintenance 10464.06015409
scalar OsgEarthNet.uav[50] utilizationSecCharge 83971.572177796
scalar OsgEarthNet.uav[50] utilizationSecIdle 15182.003
scalar OsgEarthNet.uav[50] utilizationEnergyMission 62534.629642487
scalar OsgEarthNet.uav[50] utilizationEnergyMaintenance 49529.73576355
scalar OsgEarthNet.uav[50] utilizationEnergyCharge 112260.85644531
scalar OsgEarthNet.uav[50] utilizationEnergyOverdrawMission 0
scalar OsgEarthNet.uav[50] utilizationEnergyOverdrawMaintenance 59.348438262939
scalar OsgEarthNet.uav[50] utilizationCountMissions 23
scalar OsgEarthNet.uav[50] utilizationCountManeuversMission 429
scalar OsgEarthNet.uav[50] utilizationCountManeuversMaintenance 46
scalar OsgEarthNet.uav[50] utilizationCountChargeState 23
scalar OsgEarthNet.uav[50] utilizationCountOverdrawnAfterMission 1
scalar OsgEarthNet.uav[50] utilizationCountIdleState 23
scalar OsgEarthNet.uav[50] utilizationFail 0
scalar OsgEarthNet.uav[50] simulationTime 122577.64976626
scalar OsgEarthNet.uav[51] utilizationSecMission 12796.962197951
scalar OsgEarthNet.uav[51] utilizationSecMaintenance 8303.9656618401
scalar OsgEarthNet.uav[51] utilizationSecCharge 76250
scalar OsgEarthNet.uav[51] utilizationSecIdle 25226.720906465
scalar OsgEarthNet.uav[51] utilizationEnergyMission 61949.916118622
scalar OsgEarthNet.uav[51] utilizationEnergyMaintenance 38981.755062103
scalar OsgEarthNet.uav[51] utilizationEnergyCharge 100556.29931641
scalar OsgEarthNet.uav[51] utilizationEnergyOverdrawMission 0
scalar OsgEarthNet.uav[51] utilizationEnergyOverdrawMaintenance 0
scalar OsgEarthNet.uav[51] utilizationCountMissions 21
scalar OsgEarthNet.uav[51] utilizationCountManeuversMission 395
scalar OsgEarthNet.uav[51] utilizationCountManeuversMaintenance 42
scalar OsgEarthNet.uav[51] utilizationCountChargeState 21
scalar OsgEarthNet.uav[51] utilizationCountOverdrawnAfterMission 0
scalar OsgEarthNet.uav[51] utilizationCountIdleState 22
scalar OsgEarthNet.uav[51] utilizationFail 0
scalar OsgEarthNet.uav[51] simulationTime 122577.64976626
scalar OsgEarthNet.uav[52] utilizationSecMission 8603.993071796
scalar OsgEarthNet.uav[52] utilizationSecMaintenance 7451.321684076
scalar OsgEarthNet.uav[52] utilizationSecCharge 58560
scalar OsgEarthNet.uav[52] utilizationSecIdle 47962.334010385
scalar OsgEarthNet.uav[52] utilizationEnergyMission 42608.634532928
scalar OsgEarthNet.uav[52] utilizationEnergyMaintenance 34465.570220947
scalar OsgEarthNet.uav[52] utilizationEnergyCharge 77029.173828125
scalar OsgEarthNet.uav[52] utilizationEnergyOverdrawMission 0
scalar OsgEarthNet.uav[52] utilizationEnergyOverdrawMaintenance 0
scalar OsgEarthNet.uav[52] utilizationCountMissions 16
scalar OsgEarthNet.uav[52] utilizationCountManeuversMission 288
scalar OsgEarthNet.uav[52] utilizationCountManeuversMaintenance 32
scalar OsgEarthNet.uav[52] utilizationCountChargeState 16
scalar OsgEarthNet.uav[52] utilizationCountOverdrawnAfterMission 0
scalar OsgEarthNet.uav[52] utilizationCountIdleState 17
scalar OsgEarthNet.uav[52] utilizationFail 0
scalar OsgEarthNet.uav[52] simulationTime 122577.64976626
scalar OsgEarthNet.uav[53] utilizationSecMission 12829.826172492
scalar OsgEarthNet.uav[53] utilizationSecMaintenance 9113.3194474767
scalar OsgEarthNet.uav[53] utilizationSecCharge 76482.494146288
scalar OsgEarthNet.uav[53] utilizationSecIdle 24152.009
scalar OsgEarthNet.uav[53] utilizationEnergyMission 61941.607189178
scalar OsgEarthNet.uav[53] utilizationEnergyMaintenance 41863.336250305
scalar OsgEarthNet.uav[53] utilizationEnergyCharge 100624.70666504
scalar OsgEarthNet.uav[53] utilizationEnergyOverdrawMission 0
scalar OsgEarthNet.uav[53] utilizationEnergyOverdrawMaintenance 0
scalar OsgEarthNet.uav[53] utilizationCountMissions 22
scalar OsgEarthNet.uav[53] utilizationCountManeuversMission 430
scalar OsgEarthNet.uav[53] utilizationCountManeuversMaintenance 44
scalar OsgEarthNet.uav[53] utilizationCountChargeState 22
scalar OsgEarthNet.uav[53] utilizationCountOverdrawnAfterMission 0
scalar OsgEarthNet.uav[53] utilizationCountIdleState 22
scalar OsgEarthNet.uav[53] utilizationFail 0
scalar OsgEarthNet.uav[53] simulationTime 122577.64976626
scalar OsgEarthNet.uav[54] utilizationSecMission 9988.4699895163
scalar OsgEarthNet.uav[54] utilizationSecMaintenance 7447.3168200032
scalar OsgEarthNet.uav[54] utilizationSecCharge 63350
scalar OsgEarthNet.uav[54] utilizationSecIdle 41791.861956737
scalar OsgEarthNet.uav[54] utilizationEnergyMission 48049.659721375
scalar OsgEarthNet.uav[54] utilizationEnergyMaintenance 35475.681083679
scalar OsgEarthNet.uav[54] utilizationEnergyCharge 84169.375488281
scalar OsgEarthNet.uav[54] utilizationEnergyOverdrawMission 0
scalar OsgEarthNet.uav[54] utilizationEnergyOverdrawMaintenance 54.615257263184
scalar OsgEarthNet.uav[54] utilizationCountMissions 17
scalar OsgEarthNet.uav[54] utilizationCountManeuversMission 287
scalar OsgEarthNet.uav[54] utilizationCountManeuversMaintenance 34
scalar OsgEarthNet.uav[54] utilizationCountChargeState 17
scalar OsgEarthNet.uav[54] utilizationCountOverdrawnAfterMission 1
scalar OsgEarthNet.uav[54] utilizationCountIdleState 18
scalar OsgEarthNet.uav[54] utilizationFail 0
scalar OsgEarthNet.uav[54] simulationTime 122577.64976626
scalar OsgEarthNet.uav[55] utilizationSecMission 14256.304094169
scalar OsgEarthNet.uav[55] utilizationSecMaintenance 10623.62232493
scalar OsgEarthNet.uav[55] utilizationSecCharge 85350
scalar OsgEarthNet.uav[55] utilizationSecIdle 12412
scalar OsgEarthNet.uav[55] utilizationEnergyMission 67186.922391163
scalar OsgEarthNet.uav[55] utilizationEnergyMaintenance 49117.881847382
scalar OsgEarthNet.uav[55] utilizationEnergyCharge 112988.71630859
scalar OsgEarthNet.uav[55] utilizationEnergyOverdrawMission 0
scalar OsgEarthNet.uav[55] utilizationEnergyOverdrawMaintenance 42.57762336731
scalar OsgEarthNet.uav[55] utilizationCountMissions 23
scalar OsgEarthNet.uav[55] utilizationCountManeuversMission 342
scalar OsgEarthNet.uav[55] utilizationCountManeuversMaintenance 46
scalar OsgEarthNet.uav[55] utilizationCountChargeState 23
scalar OsgEarthNet.uav[55] utilizationCountOverdrawnAfterMission 2
scalar OsgEarthNet.uav[55] utilizationCountIdleState 23
scalar OsgEarthNet.uav[55] utilizationFail 0
scalar OsgEarthNet.uav[55] simulationTime 122577.64976626
scalar OsgEarthNet.uav[56] utilizationSecMission 8279.8691966555
scalar OsgEarthNet.uav[56] utilizationSecMaintenance 7731.4777076485
scalar OsgEarthNet.uav[56] utilizationSecCharge 57904.788201003
scalar OsgEarthNet.uav[56] utilizationSecIdle 48661.51366095
scalar OsgEarthNet.uav[56] utilizationEnergyMission 39831.806938171
scalar OsgEarthNet.uav[56] utilizationEnergyMaintenance 36441.716098785
scalar OsgEarthNet.uav[56] utilizationEnergyCharge 77346.479980469
scalar OsgEarthNet.uav[56] utilizationEnergyOverdrawMission 0
scalar OsgEarthNet.uav[56] utilizationEnergyOverdrawMaintenance 0
scalar OsgEarthNet.uav[56] utilizationCountMissions 16
scalar OsgEarthNet.uav[56] utilizationCountManeuversMission 293
scalar OsgEarthNet.uav[56] utilizationCountManeuversMaintenance 32
scalar OsgEarthNet.uav[56] utilizationCountChargeState 16
scalar OsgEarthNet.uav[56] utilizationCountOverdrawnAfterMission 0
scalar OsgEarthNet.uav[56] utilizationCountIdleState 15
scalar OsgEarthNet.uav[56] utilizationFail 0
scalar OsgEarthNet.uav[56] simulationTime 122577.64976626
scalar OsgEarthNet.uav[57] utilizationSecMission 8481.9326606995
scalar OsgEarthNet.uav[57] utilizationSecMaintenance 7812.5946115118
scalar OsgEarthNet.uav[57] utilizationSecCharge 59050
scalar OsgEarthNet.uav[57] utilizationSecIdle 47233.121494045
scalar OsgEarthNet.uav[57] utilizationEnergyMission 41403.08158493
scalar OsgEarthNet.uav[57] utilizationEnergyMaintenance 36483.386089325
scalar OsgEarthNet.uav[57] utilizationEnergyCharge 78542.812988281
scalar OsgEarthNet.uav[57] utilizationEnergyOverdrawMission 0
scalar OsgEarthNet.uav[57] utilizationEnergyOverdrawMaintenance 0
scalar OsgEarthNet.uav[57] utilizationCountMissions 16
scalar OsgEarthNet.uav[57] utilizationCountManeuversMission 277
scalar OsgEarthNet.uav[57] utilizationCountManeuversMaintenance 32
scalar OsgEarthNet.uav[57] utilizationCountChargeState 16
scalar OsgEarthNet.uav[57] utilizationCountOverdrawnAfterMission 0
scalar OsgEarthNet.uav[57] utilizationCountIdleState 15
scalar OsgEarthNet.uav[57] utilizationFail 0
scalar OsgEarthNet.uav[57] simulationTime 122577.64976626
scalar OsgEarthNet.uav[58] utilizationSecMission 10956.537399984
scalar OsgEarthNet.uav[58] utilizationSecMaintenance 7947.5860350405
scalar OsgEarthNet.uav[58] utilizationSecCharge 65860
scalar OsgEarthNet.uav[58] utilizationSecIdle 37813.525331232
scalar OsgEarthNet.uav[58] utilizationEnergyMission 52613.586403277
scalar OsgEarthNet.uav[58] utilizationEnergyMaintenance 37345.69719696
scalar OsgEarthNet.uav[58] utilizationEnergyCharge 86794.790527344
scalar OsgEarthNet.uav[58] utilizationEnergyOverdrawMission 0
scalar OsgEarthNet.uav[58] utilizationEnergyOverdrawMaintenance 0
scalar OsgEarthNet.uav[58] utilizationCountMissions 18
scalar OsgEarthNet.uav[58] utilizationCountManeuversMission 361
scalar OsgEarthNet.uav[58] utilizationCountManeuversMaintenance 37
scalar OsgEarthNet.uav[58] utilizationCountChargeState 18
scalar OsgEarthNet.uav[58] utilizationCountOverdrawnAfterMission 0
scalar OsgEarthNet.uav[58] utilizationCountIdleState 19
scalar OsgEarthNet.uav[58] utilizationFail 0
scalar OsgEarthNet.uav[58] simulationTime 122577.64976626
scalar OsgEarthNet.uav[59] utilizationSecMission 12029.389538732
scalar OsgEarthNet.uav[59] utilizationSecMaintenance 9618.5539404332
scalar OsgEarthNet.uav[59] utilizationSecCharge 77130
scalar OsgEarthNet.uav[59] utilizationSecIdle 23799.705287091
scalar OsgEarthNet.uav[59] utilizationEnergyMission 57707.83599472
scalar OsgEarthNet.uav[59] utilizationEnergyMaintenance 44215.847610474
scalar OsgEarthNet.uav[59] utilizationEnergyCharge 102210.29052734
scalar OsgEarthNet.uav[59] utilizationEnergyOverdrawMission 0
scalar OsgEarthNet.uav[59] utilizationEnergyOverdrawMaintenance 44.454940795898
scalar OsgEarthNet.uav[59] utilizationCountMissions 21
scalar OsgEarthNet.uav[59] utilizationCountManeuversMission 330
scalar OsgEarthNet.uav[59] utilizationCountManeuversMaintenance 42
scalar OsgEarthNet.uav[59] utilizationCountChargeState 21
scalar OsgEarthNet.uav[59] utilizationCountOverdrawnAfterMission 1
scalar OsgEarthNet.uav[59] utilizationCountIdleState 20
scalar OsgEarthNet.uav[59] utilizationFail 0
scalar OsgEarthNet.uav[59] simulationTime 122577.64976626
scalar OsgEarthNet.uav[60] utilizationSecMission 12742.256818696
scalar OsgEarthNet.uav[60] utilizationSecMaintenance 8429.3374247627
scalar OsgEarthNet.uav[60] utilizationSecCharge 73714.041522798
scalar OsgEarthNet.uav[60] utilizationSecIdle 27692.013
scalar OsgEarthNet.uav[60] utilizationEnergyMission 62434.576381683
scalar OsgEarthNet.uav[60] utilizationEnergyMaintenance 38645.244632721
scalar OsgEarthNet.uav[60] utilizationEnergyCharge 98220.303924561
scalar OsgEarthNet.uav[60] utilizationEnergyOverdrawMission 0
scalar OsgEarthNet.uav[60] utilizationEnergyOverdrawMaintenance 87.58519744873
scalar OsgEarthNet.uav[60] utilizationCountMissions 21
scalar OsgEarthNet.uav[60] utilizationCountManeuversMission 427
scalar OsgEarthNet.uav[60] utilizationCountManeuversMaintenance 42
scalar OsgEarthNet.uav[60] utilizationCountChargeState 21
scalar OsgEarthNet.uav[60] utilizationCountOverdrawnAfterMission 1
scalar OsgEarthNet.uav[60] utilizationCountIdleState 19
scalar OsgEarthNet.uav[60] utilizationFail 0
scalar OsgEarthNet.uav[60] simulationTime 122577.64976626
scalar OsgEarthNet.uav[61] utilizationSecMission 13097.627638152
scalar OsgEarthNet.uav[61] utilizationSecMaintenance 10284.016272778
scalar OsgEarthNet.uav[61] utilizationSecCharge 81544.001855326
scalar OsgEarthNet.uav[61] utilizationSecIdle 17652.003
scalar OsgEarthNet.uav[61] utilizationEnergyMission 62908.091346741
scalar OsgEarthNet.uav[61] utilizationEnergyMaintenance 48496.173336029
scalar OsgEarthNet.uav[61] utilizationEnergyCharge 108126.20141602
scalar OsgEarthNet.uav[61] utilizationEnergyOverdrawMission 0
scalar OsgEarthNet.uav[61] utilizationEnergyOverdrawMaintenance 93.145303726196
scalar OsgEarthNet.uav[61] utilizationCountMissions 23
scalar OsgEarthNet.uav[61] utilizationCountManeuversMission 383
scalar OsgEarthNet.uav[61] utilizationCountManeuversMaintenance 46
scalar OsgEarthNet.uav[61] utilizationCountChargeState 23
scalar OsgEarthNet.uav[61] utilizationCountOverdrawnAfterMission 2
scalar OsgEarthNet.uav[61] utilizationCountIdleState 23
scalar OsgEarthNet.uav[61] utilizationFail 0
scalar OsgEarthNet.uav[61] simulationTime 122577.64976626
scalar OsgEarthNet.uav[62] utilizationSecMission 13195.124835015
scalar OsgEarthNet.uav[62] utilizationSecMaintenance 9372.2632043106
scalar OsgEarthNet.uav[62] utilizationSecCharge 77235.549974602
scalar OsgEarthNet.uav[62] utilizationSecIdle 22774.710752329
scalar OsgEarthNet.uav[62] utilizationEnergyMission 64219.088794708
scalar OsgEarthNet.uav[62] utilizationEnergyMaintenance 43801.719917297
scalar OsgEarthNet.uav[62] utilizationEnergyCharge 102901.27331543
scalar OsgEarthNet.uav[62] utilizationEnergyOverdrawMission 0
scalar OsgEarthNet.uav[62] utilizationEnergyOverdrawMaintenance 0
scalar OsgEarthNet.uav[62] utilizationCountMissions 22
scalar OsgEarthNet.uav[62] utilizationCountManeuversMission 379
scalar OsgEarthNet.uav[62] utilizationCountManeuversMaintenance 44
scalar OsgEarthNet.uav[62] utilizationCountChargeState 22
scalar OsgEarthNet.uav[62] utilizationCountOverdrawnAfterMission 0
scalar OsgEarthNet.uav[62] utilizationCountIdleState 20
scalar OsgEarthNet.uav[62] utilizationFail 0
scalar OsgEarthNet.uav[62] simulationTime 122577.64976626
scalar OsgEarthNet.uav[63] utilizationSecMission 13676.249559406
scalar OsgEarthNet.uav[63] utilizationSecMaintenance 9487.6637627651
scalar OsgEarthNet.uav[63] utilizationSecCharge 81834.137429556
scalar OsgEarthNet.uav[63] utilizationSecIdle 17579.59801453
scalar OsgEarthNet.uav[63] utilizationEnergyMission 67007.904537201
scalar OsgEarthNet.uav[63] utilizationEnergyMaintenance 43597.164081573
scalar OsgEarthNet.uav[63] utilizationEnergyCharge 108645.84716797
scalar OsgEarthNet.uav[63] utilizationEnergyOverdrawMission 0
scalar OsgEarthNet.uav[63] utilizationEnergyOverdrawMaintenance 7.2855834960938
scalar OsgEarthNet.uav[63] utilizationCountMissions 23
scalar OsgEarthNet.uav[63] utilizationCountManeuversMission 483
scalar OsgEarthNet.uav[63] utilizationCountManeuversMaintenance 46
scalar OsgEarthNet.uav[63] utilizationCountChargeState 23
scalar OsgEarthNet.uav[63] utilizationCountOverdrawnAfterMission 1
scalar OsgEarthNet.uav[63] utilizationCountIdleState 22
scalar OsgEarthNet.uav[63] utilizationFail 0
scalar OsgEarthNet.uav[63] simulationTime 122577.64976626
scalar OsgEarthNet.uav[64] utilizationSecMission 12737.586712386
scalar OsgEarthNet.uav[64] utilizationSecMaintenance 10538.112167323
scalar OsgEarthNet.uav[64] utilizationSecCharge 81131.840802643
scalar OsgEarthNet.uav[64] utilizationSecIdle 18170.109083905
scalar OsgEarthNet.uav[64] utilizationEnergyMission 62835.652946472
scalar OsgEarthNet.uav[64] utilizationEnergyMaintenance 48239.92476654
scalar OsgEarthNet.uav[64] utilizationEnergyCharge 107475.36230469
scalar OsgEarthNet.uav[64] utilizationEnergyOverdrawMission 0
scalar OsgEarthNet.uav[64] utilizationEnergyOverdrawMaintenance 0
scalar OsgEarthNet.uav[64] utilizationCountMissions 23
scalar OsgEarthNet.uav[64] utilizationCountManeuversMission 435
scalar OsgEarthNet.uav[64] utilizationCountManeuversMaintenance 46
scalar OsgEarthNet.uav[64] utilizationCountChargeState 23
scalar OsgEarthNet.uav[64] utilizationCountOverdrawnAfterMission 0
scalar OsgEarthNet.uav[64] utilizationCountIdleState 23
scalar OsgEarthNet.uav[64] utilizationFail 0
scalar OsgEarthNet.uav[64] simulationTime 122577.64976626
[...]
scalar OsgEarthNet.uav[81] utilizationCountChargeState 26
scalar OsgEarthNet.uav[81] utilizationCountOverdrawnAfterMission 0
scalar OsgEarthNet.uav[81] utilizationCountIdleState 15
scalar OsgEarthNet.uav[81] utilizationFail 0
scalar OsgEarthNet.uav[81] simulationTime 122577.64976626
scalar OsgEarthNet.uav[82] utilizationSecMission 13458.180448754
scalar OsgEarthNet.uav[82] utilizationSecMaintenance 10990.188707735
scalar OsgEarthNet.uav[82] utilizationSecCharge 86727.273609768
scalar OsgEarthNet.uav[82] utilizationSecIdle 11402.006
scalar OsgEarthNet.uav[82] utilizationEnergyMission 65435.020626068
scalar OsgEarthNet.uav[82] utilizationEnergyMaintenance 51052.286449432
scalar OsgEarthNet.uav[82] utilizationEnergyCharge 115432.41748047
scalar OsgEarthNet.uav[82] utilizationEnergyOverdrawMission 0
scalar OsgEarthNet.uav[82] utilizationEnergyOverdrawMaintenance 8.669563293457
scalar OsgEarthNet.uav[82] utilizationCountMissions 24
scalar OsgEarthNet.uav[82] utilizationCountManeuversMission 402
scalar OsgEarthNet.uav[82] utilizationCountManeuversMaintenance 48
scalar OsgEarthNet.uav[82] utilizationCountChargeState 24
scalar OsgEarthNet.uav[82] utilizationCountOverdrawnAfterMission 1
scalar OsgEarthNet.uav[82] utilizationCountIdleState 22
scalar OsgEarthNet.uav[82] utilizationFail 0
scalar OsgEarthNet.uav[82] simulationTime 122577.64976626
scalar OsgEarthNet.uav[83] utilizationSecMission 14522.88136535
scalar OsgEarthNet.uav[83] utilizationSecMaintenance 10334.920449582
scalar OsgEarthNet.uav[83] utilizationSecCharge 87718.651375218
scalar OsgEarthNet.uav[83] utilizationSecIdle 10001.195576106
scalar OsgEarthNet.uav[83] utilizationEnergyMission 69729.050559998
scalar OsgEarthNet.uav[83] utilizationEnergyMaintenance 47961.779174805
scalar OsgEarthNet.uav[83] utilizationEnergyCharge 117265.99365234
scalar OsgEarthNet.uav[83] utilizationEnergyOverdrawMission 0
scalar OsgEarthNet.uav[83] utilizationEnergyOverdrawMaintenance 0
scalar OsgEarthNet.uav[83] utilizationCountMissions 24
scalar OsgEarthNet.uav[83] utilizationCountManeuversMission 405
scalar OsgEarthNet.uav[83] utilizationCountManeuversMaintenance 48
scalar OsgEarthNet.uav[83] utilizationCountChargeState 24
scalar OsgEarthNet.uav[83] utilizationCountOverdrawnAfterMission 0
scalar OsgEarthNet.uav[83] utilizationCountIdleState 20
scalar OsgEarthNet.uav[83] utilizationFail 0
scalar OsgEarthNet.uav[83] simulationTime 122577.64976626
scalar OsgEarthNet.uav[84] utilizationSecMission 13783.588494079
scalar OsgEarthNet.uav[84] utilizationSecMaintenance 10378.318014067
scalar OsgEarthNet.uav[84] utilizationSecCharge 86008.003138188
scalar OsgEarthNet.uav[84] utilizationSecIdle 12407.739119922
scalar OsgEarthNet.uav[84] utilizationEnergyMission 66216.307971954
scalar OsgEarthNet.uav[84] utilizationEnergyMaintenance 48382.140300751
scalar OsgEarthNet.uav[84] utilizationEnergyCharge 114668.30810547
scalar OsgEarthNet.uav[84] utilizationEnergyOverdrawMission 0
scalar OsgEarthNet.uav[84] utilizationEnergyOverdrawMaintenance 0
scalar OsgEarthNet.uav[84] utilizationCountMissions 24
scalar OsgEarthNet.uav[84] utilizationCountManeuversMission 393
scalar OsgEarthNet.uav[84] utilizationCountManeuversMaintenance 48
scalar OsgEarthNet.uav[84] utilizationCountChargeState 24
scalar OsgEarthNet.uav[84] utilizationCountOverdrawnAfterMission 0
scalar OsgEarthNet.uav[84] utilizationCountIdleState 18
scalar OsgEarthNet.uav[84] utilizationFail 0
scalar OsgEarthNet.uav[84] simulationTime 122577.64976626
scalar OsgEarthNet.uav[85] utilizationSecMission 14255.056271975
scalar OsgEarthNet.uav[85] utilizationSecMaintenance 11172.734544505
scalar OsgEarthNet.uav[85] utilizationSecCharge 89303.589174662
scalar OsgEarthNet.uav[85] utilizationSecIdle 7846.2687751136
scalar OsgEarthNet.uav[85] utilizationEnergyMission 69557.910987854
scalar OsgEarthNet.uav[85] utilizationEnergyMaintenance 51764.376598358
scalar OsgEarthNet.uav[85] utilizationEnergyCharge 119326.71533203
scalar OsgEarthNet.uav[85] utilizationEnergyOverdrawMission 0
scalar OsgEarthNet.uav[85] utilizationEnergyOverdrawMaintenance 58.252784729004
scalar OsgEarthNet.uav[85] utilizationCountMissions 25
scalar OsgEarthNet.uav[85] utilizationCountManeuversMission 464
scalar OsgEarthNet.uav[85] utilizationCountManeuversMaintenance 50
scalar OsgEarthNet.uav[85] utilizationCountChargeState 25
scalar OsgEarthNet.uav[85] utilizationCountOverdrawnAfterMission 1
scalar OsgEarthNet.uav[85] utilizationCountIdleState 19
scalar OsgEarthNet.uav[85] utilizationFail 0
scalar OsgEarthNet.uav[85] simulationTime 122577.64976626
scalar OsgEarthNet.uav[86] utilizationSecMission 15643.838174764
scalar OsgEarthNet.uav[86] utilizationSecMaintenance 9421.8045914928
scalar OsgEarthNet.uav[86] utilizationSecCharge 90250
scalar OsgEarthNet.uav[86] utilizationSecIdle 7262.006
scalar OsgEarthNet.uav[86] utilizationEnergyMission 75844.09368515
scalar OsgEarthNet.uav[86] utilizationEnergyMaintenance 43477.176736691
scalar OsgEarthNet.uav[86] utilizationEnergyCharge 119777.74707031
scalar OsgEarthNet.uav[86] utilizationEnergyOverdrawMission 0
scalar OsgEarthNet.uav[86] utilizationEnergyOverdrawMaintenance 0
scalar OsgEarthNet.uav[86] utilizationCountMissions 25
scalar OsgEarthNet.uav[86] utilizationCountManeuversMission 501
scalar OsgEarthNet.uav[86] utilizationCountManeuversMaintenance 51
scalar OsgEarthNet.uav[86] utilizationCountChargeState 25
scalar OsgEarthNet.uav[86] utilizationCountOverdrawnAfterMission 0
scalar OsgEarthNet.uav[86] utilizationCountIdleState 15
scalar OsgEarthNet.uav[86] utilizationFail 0
scalar OsgEarthNet.uav[86] simulationTime 122577.64976626
scalar OsgEarthNet.uav[87] utilizationSecMission 14958.937747101
scalar OsgEarthNet.uav[87] utilizationSecMaintenance 10924.5175003
scalar OsgEarthNet.uav[87] utilizationSecCharge 89340
scalar OsgEarthNet.uav[87] utilizationSecIdle 7354.1935188562
scalar OsgEarthNet.uav[87] utilizationEnergyMission 72524.580570221
scalar OsgEarthNet.uav[87] utilizationEnergyMaintenance 50363.425281747
scalar OsgEarthNet.uav[87] utilizationEnergyCharge 119060.30786133
scalar OsgEarthNet.uav[87] utilizationEnergyOverdrawMission 0
scalar OsgEarthNet.uav[87] utilizationEnergyOverdrawMaintenance 63.859481811523
scalar OsgEarthNet.uav[87] utilizationCountMissions 26
scalar OsgEarthNet.uav[87] utilizationCountManeuversMission 442
scalar OsgEarthNet.uav[87] utilizationCountManeuversMaintenance 52
scalar OsgEarthNet.uav[87] utilizationCountChargeState 25
scalar OsgEarthNet.uav[87] utilizationCountOverdrawnAfterMission 1
scalar OsgEarthNet.uav[87] utilizationCountIdleState 16
scalar OsgEarthNet.uav[87] utilizationFail 0
scalar OsgEarthNet.uav[87] simulationTime 122577.64976626
scalar OsgEarthNet.uav[88] utilizationSecMission 15799.333772453
scalar OsgEarthNet.uav[88] utilizationSecMaintenance 9835.5062255624
scalar OsgEarthNet.uav[88] utilizationSecCharge 90242.971949373
scalar OsgEarthNet.uav[88] utilizationSecIdle 6699.8368188682
scalar OsgEarthNet.uav[88] utilizationEnergyMission 77202.487121582
scalar OsgEarthNet.uav[88] utilizationEnergyMaintenance 46215.243991852
scalar OsgEarthNet.uav[88] utilizationEnergyCharge 122388.96142578
scalar OsgEarthNet.uav[88] utilizationEnergyOverdrawMission 0
scalar OsgEarthNet.uav[88] utilizationEnergyOverdrawMaintenance 100.40871047974
scalar OsgEarthNet.uav[88] utilizationCountMissions 25
scalar OsgEarthNet.uav[88] utilizationCountManeuversMission 477
scalar OsgEarthNet.uav[88] utilizationCountManeuversMaintenance 50
scalar OsgEarthNet.uav[88] utilizationCountChargeState 25
scalar OsgEarthNet.uav[88] utilizationCountOverdrawnAfterMission 2
scalar OsgEarthNet.uav[88] utilizationCountIdleState 17
scalar OsgEarthNet.uav[88] utilizationFail 0
scalar OsgEarthNet.uav[88] simulationTime 122577.64976626
scalar OsgEarthNet.uav[89] utilizationSecMission 13247.373206425
scalar OsgEarthNet.uav[89] utilizationSecMaintenance 11350.674545301
scalar OsgEarthNet.uav[89] utilizationSecCharge 87200
scalar OsgEarthNet.uav[89] utilizationSecIdle 10779.60101453
scalar OsgEarthNet.uav[89] utilizationEnergyMission 65076.513370836
scalar OsgEarthNet.uav[89] utilizationEnergyMaintenance 52833.955265045
scalar OsgEarthNet.uav[89] utilizationEnergyCharge 116398.07885742
scalar OsgEarthNet.uav[89] utilizationEnergyOverdrawMission 0
scalar OsgEarthNet.uav[89] utilizationEnergyOverdrawMaintenance 0
scalar OsgEarthNet.uav[89] utilizationCountMissions 24
scalar OsgEarthNet.uav[89] utilizationCountManeuversMission 424
scalar OsgEarthNet.uav[89] utilizationCountManeuversMaintenance 49
scalar OsgEarthNet.uav[89] utilizationCountChargeState 24
scalar OsgEarthNet.uav[89] utilizationCountOverdrawnAfterMission 0
scalar OsgEarthNet.uav[89] utilizationCountIdleState 14
scalar OsgEarthNet.uav[89] utilizationFail 0
scalar OsgEarthNet.uav[89] simulationTime 122577.64976626
scalar OsgEarthNet.uav[90] utilizationSecMission 13243.356610357
scalar OsgEarthNet.uav[90] utilizationSecMaintenance 12862.281155899
scalar OsgEarthNet.uav[90] utilizationSecCharge 89080
scalar OsgEarthNet.uav[90] utilizationSecIdle 7392.011
scalar OsgEarthNet.uav[90] utilizationEnergyMission 65540.381584167
scalar OsgEarthNet.uav[90] utilizationEnergyMaintenance 59239.566400826
scalar OsgEarthNet.uav[90] utilizationEnergyCharge 119767.45605469
scalar OsgEarthNet.uav[90] utilizationEnergyOverdrawMission 0
scalar OsgEarthNet.uav[90] utilizationEnergyOverdrawMaintenance 0
scalar OsgEarthNet.uav[90] utilizationCountMissions 26
scalar OsgEarthNet.uav[90] utilizationCountManeuversMission 412
scalar OsgEarthNet.uav[90] utilizationCountManeuversMaintenance 52
scalar OsgEarthNet.uav[90] utilizationCountChargeState 25
scalar OsgEarthNet.uav[90] utilizationCountOverdrawnAfterMission 0
scalar OsgEarthNet.uav[90] utilizationCountIdleState 11
scalar OsgEarthNet.uav[90] utilizationFail 0
scalar OsgEarthNet.uav[90] simulationTime 122577.64976626
scalar OsgEarthNet.uav[91] utilizationSecMission 12979.276102264
scalar OsgEarthNet.uav[91] utilizationSecMaintenance 12522.004289043
scalar OsgEarthNet.uav[91] utilizationSecCharge 89530
scalar OsgEarthNet.uav[91] utilizationSecIdle 7546.3683749499
scalar OsgEarthNet.uav[91] utilizationEnergyMission 64094.927257817
scalar OsgEarthNet.uav[91] utilizationEnergyMaintenance 58114.507266998
scalar OsgEarthNet.uav[91] utilizationEnergyCharge 119846.47167969
scalar OsgEarthNet.uav[91] utilizationEnergyOverdrawMission 0
scalar OsgEarthNet.uav[91] utilizationEnergyOverdrawMaintenance 0
scalar OsgEarthNet.uav[91] utilizationCountMissions 25
scalar OsgEarthNet.uav[91] utilizationCountManeuversMission 444
scalar OsgEarthNet.uav[91] utilizationCountManeuversMaintenance 51
scalar OsgEarthNet.uav[91] utilizationCountChargeState 25
scalar OsgEarthNet.uav[91] utilizationCountOverdrawnAfterMission 0
scalar OsgEarthNet.uav[91] utilizationCountIdleState 16
scalar OsgEarthNet.uav[91] utilizationFail 0
scalar OsgEarthNet.uav[91] simulationTime 122577.64976626
scalar OsgEarthNet.uav[92] utilizationSecMission 16883.534546462
scalar OsgEarthNet.uav[92] utilizationSecMaintenance 9864.150572867
scalar OsgEarthNet.uav[92] utilizationSecCharge 91127.963646928
scalar OsgEarthNet.uav[92] utilizationSecIdle 4702
scalar OsgEarthNet.uav[92] utilizationEnergyMission 80916.183189392
scalar OsgEarthNet.uav[92] utilizationEnergyMaintenance 45885.095878601
scalar OsgEarthNet.uav[92] utilizationEnergyCharge 121705.22686768
scalar OsgEarthNet.uav[92] utilizationEnergyOverdrawMission 0
scalar OsgEarthNet.uav[92] utilizationEnergyOverdrawMaintenance 0
scalar OsgEarthNet.uav[92] utilizationCountMissions 26
scalar OsgEarthNet.uav[92] utilizationCountManeuversMission 445
scalar OsgEarthNet.uav[92] utilizationCountManeuversMaintenance 52
scalar OsgEarthNet.uav[92] utilizationCountChargeState 26
scalar OsgEarthNet.uav[92] utilizationCountOverdrawnAfterMission 0
scalar OsgEarthNet.uav[92] utilizationCountIdleState 19
scalar OsgEarthNet.uav[92] utilizationFail 0
scalar OsgEarthNet.uav[92] simulationTime 122577.64976626
scalar OsgEarthNet.uav[93] utilizationSecMission 14240.715268031
scalar OsgEarthNet.uav[93] utilizationSecMaintenance 11374.926498225
scalar OsgEarthNet.uav[93] utilizationSecCharge 90690
scalar OsgEarthNet.uav[93] utilizationSecIdle 6272.007
scalar OsgEarthNet.uav[93] utilizationEnergyMission 68847.067095996
scalar OsgEarthNet.uav[93] utilizationEnergyMaintenance 53627.513339996
scalar OsgEarthNet.uav[93] utilizationEnergyCharge 121828.41845703
scalar OsgEarthNet.uav[93] utilizationEnergyOverdrawMission 0
scalar OsgEarthNet.uav[93] utilizationEnergyOverdrawMaintenance 158.79800987244
scalar OsgEarthNet.uav[93] utilizationCountMissions 25
scalar OsgEarthNet.uav[93] utilizationCountManeuversMission 429
scalar OsgEarthNet.uav[93] utilizationCountManeuversMaintenance 51
scalar OsgEarthNet.uav[93] utilizationCountChargeState 25
scalar OsgEarthNet.uav[93] utilizationCountOverdrawnAfterMission 2
scalar OsgEarthNet.uav[93] utilizationCountIdleState 15
scalar OsgEarthNet.uav[93] utilizationFail 0
scalar OsgEarthNet.uav[93] simulationTime 122577.64976626
scalar OsgEarthNet.uav[94] utilizationSecMission 14756.436911126
scalar OsgEarthNet.uav[94] utilizationSecMaintenance 10754.855102225
scalar OsgEarthNet.uav[94] utilizationSecCharge 87462.651838241
scalar OsgEarthNet.uav[94] utilizationSecIdle 9603.7049146645
scalar OsgEarthNet.uav[94] utilizationEnergyMission 68860.552509308
scalar OsgEarthNet.uav[94] utilizationEnergyMaintenance 50502.45772934
scalar OsgEarthNet.uav[94] utilizationEnergyCharge 118014.8347168
scalar OsgEarthNet.uav[94] utilizationEnergyOverdrawMission 0
scalar OsgEarthNet.uav[94] utilizationEnergyOverdrawMaintenance 39.751319885254
scalar OsgEarthNet.uav[94] utilizationCountMissions 25
scalar OsgEarthNet.uav[94] utilizationCountManeuversMission 313
scalar OsgEarthNet.uav[94] utilizationCountManeuversMaintenance 50
scalar OsgEarthNet.uav[94] utilizationCountChargeState 25
scalar OsgEarthNet.uav[94] utilizationCountOverdrawnAfterMission 1
scalar OsgEarthNet.uav[94] utilizationCountIdleState 15
scalar OsgEarthNet.uav[94] utilizationFail 0
scalar OsgEarthNet.uav[94] simulationTime 122577.64976626
scalar OsgEarthNet.uav[95] utilizationSecMission 14399.042201006
scalar OsgEarthNet.uav[95] utilizationSecMaintenance 11379.43145484
scalar OsgEarthNet.uav[95] utilizationSecCharge 91470
scalar OsgEarthNet.uav[95] utilizationSecIdle 5329.1751104107
scalar OsgEarthNet.uav[95] utilizationEnergyMission 71689.408554077
scalar OsgEarthNet.uav[95] utilizationEnergyMaintenance 52255.765673515
scalar OsgEarthNet.uav[95] utilizationEnergyCharge 122406.24121094
scalar OsgEarthNet.uav[95] utilizationEnergyOverdrawMission 0
scalar OsgEarthNet.uav[95] utilizationEnergyOverdrawMaintenance 0
scalar OsgEarthNet.uav[95] utilizationCountMissions 25
scalar OsgEarthNet.uav[95] utilizationCountManeuversMission 521
scalar OsgEarthNet.uav[95] utilizationCountManeuversMaintenance 51
scalar OsgEarthNet.uav[95] utilizationCountChargeState 25
scalar OsgEarthNet.uav[95] utilizationCountOverdrawnAfterMission 0
scalar OsgEarthNet.uav[95] utilizationCountIdleState 16
scalar OsgEarthNet.uav[95] utilizationFail 0
scalar OsgEarthNet.uav[95] simulationTime 122577.64976626
scalar OsgEarthNet.uav[96] utilizationSecMission 14796.87395575
scalar OsgEarthNet.uav[96] utilizationSecMaintenance 11318.21859898
scalar OsgEarthNet.uav[96] utilizationSecCharge 89780
scalar OsgEarthNet.uav[96] utilizationSecIdle 6682.5562115266
scalar OsgEarthNet.uav[96] utilizationEnergyMission 71806.579638779
scalar OsgEarthNet.uav[96] utilizationEnergyMaintenance 52248.484794617
scalar OsgEarthNet.uav[96] utilizationEnergyCharge 120598.06445312
scalar OsgEarthNet.uav[96] utilizationEnergyOverdrawMission 0
scalar OsgEarthNet.uav[96] utilizationEnergyOverdrawMaintenance 0
scalar OsgEarthNet.uav[96] utilizationCountMissions 25
scalar OsgEarthNet.uav[96] utilizationCountManeuversMission 464
scalar OsgEarthNet.uav[96] utilizationCountManeuversMaintenance 51
scalar OsgEarthNet.uav[96] utilizationCountChargeState 25
scalar OsgEarthNet.uav[96] utilizationCountOverdrawnAfterMission 0
scalar OsgEarthNet.uav[96] utilizationCountIdleState 15
scalar OsgEarthNet.uav[96] utilizationFail 0
scalar OsgEarthNet.uav[96] simulationTime 122577.64976626
scalar OsgEarthNet.uav[97] utilizationSecMission 14826.226505037
scalar OsgEarthNet.uav[97] utilizationSecMaintenance 10774.558830127
scalar OsgEarthNet.uav[97] utilizationSecCharge 89821.418342402
scalar OsgEarthNet.uav[97] utilizationSecIdle 7155.4450886909
scalar OsgEarthNet.uav[97] utilizationEnergyMission 72095.559844971
scalar OsgEarthNet.uav[97] utilizationEnergyMaintenance 50096.400291443
scalar OsgEarthNet.uav[97] utilizationEnergyCharge 122446.63769531
scalar OsgEarthNet.uav[97] utilizationEnergyOverdrawMission 0
scalar OsgEarthNet.uav[97] utilizationEnergyOverdrawMaintenance 183.4289855957
scalar OsgEarthNet.uav[97] utilizationCountMissions 25
scalar OsgEarthNet.uav[97] utilizationCountManeuversMission 393
scalar OsgEarthNet.uav[97] utilizationCountManeuversMaintenance 50
scalar OsgEarthNet.uav[97] utilizationCountChargeState 25
scalar OsgEarthNet.uav[97] utilizationCountOverdrawnAfterMission 2
scalar OsgEarthNet.uav[97] utilizationCountIdleState 11
scalar OsgEarthNet.uav[97] utilizationFail 0
scalar OsgEarthNet.uav[97] simulationTime 122577.64976626
scalar OsgEarthNet.uav[98] utilizationSecMission 15152.80752431
scalar OsgEarthNet.uav[98] utilizationSecMaintenance 11205.210156453
scalar OsgEarthNet.uav[98] utilizationSecCharge 91140
scalar OsgEarthNet.uav[98] utilizationSecIdle 5079.6310854934
scalar OsgEarthNet.uav[98] utilizationEnergyMission 73143.155944824
scalar OsgEarthNet.uav[98] utilizationEnergyMaintenance 52858.670331632
scalar OsgEarthNet.uav[98] utilizationEnergyCharge 122054.18554688
scalar OsgEarthNet.uav[98] utilizationEnergyOverdrawMission 0
scalar OsgEarthNet.uav[98] utilizationEnergyOverdrawMaintenance 0
scalar OsgEarthNet.uav[98] utilizationCountMissions 26
scalar OsgEarthNet.uav[98] utilizationCountManeuversMission 486
scalar OsgEarthNet.uav[98] utilizationCountManeuversMaintenance 52
scalar OsgEarthNet.uav[98] utilizationCountChargeState 25
scalar OsgEarthNet.uav[98] utilizationCountOverdrawnAfterMission 0
scalar OsgEarthNet.uav[98] utilizationCountIdleState 15
scalar OsgEarthNet.uav[98] utilizationFail 0
scalar OsgEarthNet.uav[98] simulationTime 122577.64976626
scalar OsgEarthNet.uav[99] utilizationSecMission 14242.613229732
scalar OsgEarthNet.uav[99] utilizationSecMaintenance 10927.079451409
scalar OsgEarthNet.uav[99] utilizationSecCharge 89095.508198586
scalar OsgEarthNet.uav[99] utilizationSecIdle 8312.4478865296
scalar OsgEarthNet.uav[99] utilizationEnergyMission 67610.657390594
scalar OsgEarthNet.uav[99] utilizationEnergyMaintenance 51455.463432312
scalar OsgEarthNet.uav[99] utilizationEnergyCharge 119076.75268555
scalar OsgEarthNet.uav[99] utilizationEnergyOverdrawMission 0
scalar OsgEarthNet.uav[99] utilizationEnergyOverdrawMaintenance 0
scalar OsgEarthNet.uav[99] utilizationCountMissions 25
scalar OsgEarthNet.uav[99] utilizationCountManeuversMission 419
scalar OsgEarthNet.uav[99] utilizationCountManeuversMaintenance 50
scalar OsgEarthNet.uav[99] utilizationCountChargeState 25
scalar OsgEarthNet.uav[99] utilizationCountOverdrawnAfterMission 0
scalar OsgEarthNet.uav[99] utilizationCountIdleState 17
scalar OsgEarthNet.uav[99] utilizationFail 0
scalar OsgEarthNet.uav[99] simulationTime 122577.64976626
scalar OsgEarthNet.cs[0] usedPower 2284151.2545232
scalar OsgEarthNet.cs[0] chargedPower 2284151.2545232
scalar OsgEarthNet.cs[0] chargedMobileNodes 396
scalar OsgEarthNet.cs[0] reservations 478
scalar OsgEarthNet.cs[1] usedPower 2309444.5375807
scalar OsgEarthNet.cs[1] chargedPower 2309444.5375807
scalar OsgEarthNet.cs[1] chargedMobileNodes 385
scalar OsgEarthNet.cs[1] reservations 478
scalar OsgEarthNet.cs[2] usedPower 4341139.1596612
scalar OsgEarthNet.cs[2] chargedPower 4341139.1596612
scalar OsgEarthNet.cs[2] chargedMobileNodes 779
scalar OsgEarthNet.cs[2] reservations 913

