version 2
run Szenario_Hotel_Gabelbach-111-20180708-02:11:55-34784
attr configname Szenario_Hotel_Gabelbach
attr datetime 20180708-02:11:55
attr experiment Szenario_Hotel_Gabelbach
attr inifile omnetpp.ini
attr iterationvars "$quant=0.99, $replM=0"
attr iterationvarsf quant=0.99,replM=0-
attr measurement "$quant=0.99, $replM=0"
attr network OsgEarthNet
attr processid 34784
attr repetition 15
attr replication #15
attr resultdir results
attr runnumber 111
attr seedset 111
itervar quant 0.99
itervar replM 0
param *.osgEarthScene.scene "\"Szenario_Hotel_Gabelbach.earth\""
param *.playgroundLatitude 50.6830269
param *.playgroundLongitude 10.8538055
param *.playgroundWidth 3500m
param *.playgroundHeight 3500m
param *.numCSs 3
param *.numUAVs 100
param *.cs[0].posX 3537m
param *.cs[0].posY 965m
param *.cs[0].posZ 538m
param *.cs[1].posX 312m
param *.cs[1].posY 1262m
param *.cs[1].posZ 539m
param *.cs[2].posX 2185m
param *.cs[2].posY 3026m
param *.cs[2].posZ 777m
param *.uav[*].predictionQuantile 0.99
param *.uav[*].replacementMethod 0
param *.*.timeStep 10s
param *.uav[*].commandPreviewCommandCount 20
param *.missionControl.missionFiles "\"missions\\\\Szenario_WB_Hotel_Gabelbach_Mission_Hotel.waypoints,missions\\\\Szenario_WB_Hotel_Gabelbach_Mission_Kickelhahn.waypoints,missions\\\\Szenario_WB_Hotel_Gabelbach_Mission_Ilmenau_Sportplatz.waypoints,missions\\\\Szenario_WB_Hotel_Gabelbach_Mission_Manebach_Mitte.waypoints,missions\\\\Szenario_WB_Hotel_Gabelbach_Mission_Manebach_Sued.waypoints,missions\\\\Szenario_WB_Hotel_Gabelbach_Hover_HoheSchlaufe.waypoints,missions\\\\Szenario_WB_Hotel_Gabelbach_Hover_Kickelhahn.waypoints,missions\\\\Szenario_WB_Hotel_Gabelbach_Hover_Gabelbachskopf.waypoints,missions\\\\Szenario_WB_Hotel_Gabelbach_Hover_Dachskopf.waypoints\""
param *.uav[0].startX 3537m
param *.uav[0].startY 965m
param *.uav[0].startZ 539m
param *.uav[1].startX 312m
param *.uav[1].startY 1262m
param *.uav[1].startZ 540m
param *.uav[2].startX 2185m
param *.uav[2].startY 3026m
param *.uav[2].startZ 778m
param *.uav[3].startX 3537m
param *.uav[3].startY 965m
param *.uav[3].startZ 539m
param *.uav[4].startX 312m
param *.uav[4].startY 1262m
param *.uav[4].startZ 540m
param *.uav[5].startX 2185m
param *.uav[5].startY 3026m
param *.uav[5].startZ 778m
param *.uav[6].startX 3537m
param *.uav[6].startY 965m
param *.uav[6].startZ 539m
param *.uav[7].startX 312m
param *.uav[7].startY 1262m
param *.uav[7].startZ 540m
param *.uav[8].startX 2185m
param *.uav[8].startY 3026m
param *.uav[8].startZ 778m
param *.uav[9].startX 3537m
param *.uav[9].startY 965m
param *.uav[9].startZ 539m
param *.uav[10].startX 3537m
param *.uav[10].startY 965m
param *.uav[10].startZ 539m
param *.uav[11].startX 312m
param *.uav[11].startY 1262m
param *.uav[11].startZ 540m
param *.uav[12].startX 2185m
param *.uav[12].startY 3026m
param *.uav[12].startZ 778m
param *.uav[13].startX 3537m
param *.uav[13].startY 965m
param *.uav[13].startZ 539m
param *.uav[14].startX 312m
param *.uav[14].startY 1262m
param *.uav[14].startZ 540m
param *.uav[15].startX 2185m
param *.uav[15].startY 3026m
param *.uav[15].startZ 778m
param *.uav[16].startX 3537m
param *.uav[16].startY 965m
param *.uav[16].startZ 539m
param *.uav[17].startX 312m
param *.uav[17].startY 1262m
param *.uav[17].startZ 540m
param *.uav[18].startX 2185m
param *.uav[18].startY 3026m
param *.uav[18].startZ 778m
param *.uav[19].startX 3537m
param *.uav[19].startY 965m
param *.uav[19].startZ 539m
param *.uav[20].startX 3537m
param *.uav[20].startY 965m
param *.uav[20].startZ 539m
param *.uav[21].startX 312m
param *.uav[21].startY 1262m
param *.uav[21].startZ 540m
param *.uav[22].startX 2185m
param *.uav[22].startY 3026m
param *.uav[22].startZ 778m
param *.uav[23].startX 3537m
param *.uav[23].startY 965m
param *.uav[23].startZ 539m
param *.uav[24].startX 312m
param *.uav[24].startY 1262m
param *.uav[24].startZ 540m
param *.uav[25].startX 2185m
param *.uav[25].startY 3026m
param *.uav[25].startZ 778m
param *.uav[26].startX 3537m
param *.uav[26].startY 965m
param *.uav[26].startZ 539m
param *.uav[27].startX 312m
param *.uav[27].startY 1262m
param *.uav[27].startZ 540m
param *.uav[28].startX 2185m
param *.uav[28].startY 3026m
param *.uav[28].startZ 778m
param *.uav[29].startX 3537m
param *.uav[29].startY 965m
param *.uav[29].startZ 539m
param *.uav[30].startX 3537m
param *.uav[30].startY 965m
param *.uav[30].startZ 539m
param *.uav[31].startX 312m
param *.uav[31].startY 1262m
param *.uav[31].startZ 540m
param *.uav[32].startX 2185m
param *.uav[32].startY 3026m
param *.uav[32].startZ 778m
param *.uav[33].startX 3537m
param *.uav[33].startY 965m
param *.uav[33].startZ 539m
param *.uav[34].startX 312m
param *.uav[34].startY 1262m
param *.uav[34].startZ 540m
param *.uav[35].startX 2185m
param *.uav[35].startY 3026m
param *.uav[35].startZ 778m
param *.uav[36].startX 3537m
param *.uav[36].startY 965m
param *.uav[36].startZ 539m
param *.uav[37].startX 312m
param *.uav[37].startY 1262m
param *.uav[37].startZ 540m
param *.uav[38].startX 2185m
param *.uav[38].startY 3026m
param *.uav[38].startZ 778m
param *.uav[39].startX 3537m
param *.uav[39].startY 965m
param *.uav[39].startZ 539m
param *.uav[40].startX 3537m
param *.uav[40].startY 965m
param *.uav[40].startZ 539m
param *.uav[41].startX 312m
param *.uav[41].startY 1262m
param *.uav[41].startZ 540m
param *.uav[42].startX 2185m
param *.uav[42].startY 3026m
param *.uav[42].startZ 778m
param *.uav[43].startX 3537m
param *.uav[43].startY 965m
param *.uav[43].startZ 539m
param *.uav[44].startX 312m
param *.uav[44].startY 1262m
param *.uav[44].startZ 540m
param *.uav[45].startX 2185m
param *.uav[45].startY 3026m
param *.uav[45].startZ 778m
param *.uav[46].startX 3537m
param *.uav[46].startY 965m
param *.uav[46].startZ 539m
param *.uav[47].startX 312m
param *.uav[47].startY 1262m
param *.uav[47].startZ 540m
param *.uav[48].startX 2185m
param *.uav[48].startY 3026m
param *.uav[48].startZ 778m
param *.uav[49].startX 3537m
param *.uav[49].startY 965m
param *.uav[49].startZ 539m
param *.uav[50].startX 3537m
param *.uav[50].startY 965m
param *.uav[50].startZ 539m
param *.uav[51].startX 312m
param *.uav[51].startY 1262m
param *.uav[51].startZ 540m
param *.uav[52].startX 2185m
param *.uav[52].startY 3026m
param *.uav[52].startZ 778m
param *.uav[53].startX 3537m
param *.uav[53].startY 965m
param *.uav[53].startZ 539m
param *.uav[54].startX 312m
param *.uav[54].startY 1262m
param *.uav[54].startZ 540m
param *.uav[55].startX 2185m
param *.uav[55].startY 3026m
param *.uav[55].startZ 778m
param *.uav[56].startX 3537m
param *.uav[56].startY 965m
param *.uav[56].startZ 539m
param *.uav[57].startX 312m
param *.uav[57].startY 1262m
param *.uav[57].startZ 540m
param *.uav[58].startX 2185m
param *.uav[58].startY 3026m
param *.uav[58].startZ 778m
param *.uav[59].startX 3537m
param *.uav[59].startY 965m
param *.uav[59].startZ 539m
param *.uav[60].startX 3537m
param *.uav[60].startY 965m
param *.uav[60].startZ 539m
param *.uav[61].startX 312m
param *.uav[61].startY 1262m
param *.uav[61].startZ 540m
param *.uav[62].startX 2185m
param *.uav[62].startY 3026m
param *.uav[62].startZ 778m
param *.uav[63].startX 3537m
param *.uav[63].startY 965m
param *.uav[63].startZ 539m
param *.uav[64].startX 312m
param *.uav[64].startY 1262m
param *.uav[64].startZ 540m
param *.uav[65].startX 2185m
param *.uav[65].startY 3026m
param *.uav[65].startZ 778m
param *.uav[66].startX 3537m
param *.uav[66].startY 965m
param *.uav[66].startZ 539m
param *.uav[67].startX 312m
param *.uav[67].startY 1262m
param *.uav[67].startZ 540m
param *.uav[68].startX 2185m
param *.uav[68].startY 3026m
param *.uav[68].startZ 778m
param *.uav[69].startX 3537m
param *.uav[69].startY 965m
param *.uav[69].startZ 539m
param *.uav[70].startX 3537m
param *.uav[70].startY 965m
param *.uav[70].startZ 539m
param *.uav[71].startX 312m
param *.uav[71].startY 1262m
param *.uav[71].startZ 540m
param *.uav[72].startX 2185m
param *.uav[72].startY 3026m
param *.uav[72].startZ 778m
param *.uav[73].startX 3537m
param *.uav[73].startY 965m
param *.uav[73].startZ 539m
param *.uav[74].startX 312m
param *.uav[74].startY 1262m
param *.uav[74].startZ 540m
param *.uav[75].startX 2185m
param *.uav[75].startY 3026m
param *.uav[75].startZ 778m
param *.uav[76].startX 3537m
param *.uav[76].startY 965m
param *.uav[76].startZ 539m
param *.uav[77].startX 312m
param *.uav[77].startY 1262m
param *.uav[77].startZ 540m
param *.uav[78].startX 2185m
param *.uav[78].startY 3026m
param *.uav[78].startZ 778m
param *.uav[79].startX 3537m
param *.uav[79].startY 965m
param *.uav[79].startZ 539m
param *.uav[80].startX 3537m
param *.uav[80].startY 965m
param *.uav[80].startZ 539m
param *.uav[81].startX 312m
param *.uav[81].startY 1262m
param *.uav[81].startZ 540m
param *.uav[82].startX 2185m
param *.uav[82].startY 3026m
param *.uav[82].startZ 778m
param *.uav[83].startX 3537m
param *.uav[83].startY 965m
param *.uav[83].startZ 539m
param *.uav[84].startX 312m
param *.uav[84].startY 1262m
param *.uav[84].startZ 540m
param *.uav[85].startX 2185m
param *.uav[85].startY 3026m
param *.uav[85].startZ 778m
param *.uav[86].startX 3537m
param *.uav[86].startY 965m
param *.uav[86].startZ 539m
param *.uav[87].startX 312m
param *.uav[87].startY 1262m
param *.uav[87].startZ 540m
param *.uav[88].startX 2185m
param *.uav[88].startY 3026m
param *.uav[88].startZ 778m
param *.uav[89].startX 3537m
param *.uav[89].startY 965m
param *.uav[89].startZ 539m
param *.uav[90].startX 3537m
param *.uav[90].startY 965m
param *.uav[90].startZ 539m
param *.uav[91].startX 312m
param *.uav[91].startY 1262m
param *.uav[91].startZ 540m
param *.uav[92].startX 2185m
param *.uav[92].startY 3026m
param *.uav[92].startZ 778m
param *.uav[93].startX 3537m
param *.uav[93].startY 965m
param *.uav[93].startZ 539m
param *.uav[94].startX 312m
param *.uav[94].startY 1262m
param *.uav[94].startZ 540m
param *.uav[95].startX 2185m
param *.uav[95].startY 3026m
param *.uav[95].startZ 778m
param *.uav[96].startX 3537m
param *.uav[96].startY 965m
param *.uav[96].startZ 539m
param *.uav[97].startX 312m
param *.uav[97].startY 1262m
param *.uav[97].startZ 540m
param *.uav[98].startX 2185m
param *.uav[98].startY 3026m
param *.uav[98].startZ 778m
param *.uav[99].startX 3537m
param *.uav[99].startY 965m
param *.uav[99].startZ 539m
param *.osgEarthScene.scene "\"boston.earth\""
param *.playgroundLatitude 42.3558
param *.playgroundLongitude -71.0677
param *.playgroundWidth 400m
param *.playgroundHeight 200m
param *.channelController.connectionColor "\"#0000FF40\""
param *.channelController.showConnections false
param *.uav[*].modelURL "\"quadrocopter.small.obj.15.scale.0,0,90.rot\""
param *.uav[*].labelColor "\"#FF7C00CC\""
param *.uav[*].label2Color "\"#FF7C00EE\""
param *.uav[*].batteryCapacity 5200mAh
param *.uav[*].batteryRemaining uav[index].batteryCapacity
param *.uav[*].predictionQuantile 0.95
param *.uav[*].replacementMethod 2
param *.uav[*].weightedSumWeight 0.5
param *.cs[*].modelURL "\"chargingstation_v1.osgt.1.scale.0,0,0.rot.0,0,-15e-1.trans\""
param *.cs[*].spotsWaiting 999
param *.cs[*].spotsCharging 999
param *.cs[*].chargeEffectivenessPercentage 100
param *.cs[*].nonLinearPhaseStartPercentage 85
param *.cs[*].chargeCurrent 6.0A
param *.cs[*].prioritizeFastCharge true
param *.missionControl.replacementSearchMethod 0
param *.*.timeStep 9s

scalar OsgEarthNet.uav[0] utilizationSecMission 4118.8520364217
scalar OsgEarthNet.uav[0] utilizationSecMaintenance 4427.6450669074
scalar OsgEarthNet.uav[0] utilizationSecCharge 32180
scalar OsgEarthNet.uav[0] utilizationSecIdle 218473.50189667
scalar OsgEarthNet.uav[0] utilizationEnergyMission 19997.408607483
scalar OsgEarthNet.uav[0] utilizationEnergyMaintenance 21035.184856415
scalar OsgEarthNet.uav[0] utilizationEnergyCharge 41719.765869141
scalar OsgEarthNet.uav[0] utilizationEnergyOverdrawMission 0
scalar OsgEarthNet.uav[0] utilizationEnergyOverdrawMaintenance 0
scalar OsgEarthNet.uav[0] utilizationCountMissions 10
scalar OsgEarthNet.uav[0] utilizationCountManeuversMission 137
scalar OsgEarthNet.uav[0] utilizationCountManeuversMaintenance 20
scalar OsgEarthNet.uav[0] utilizationCountChargeState 10
scalar OsgEarthNet.uav[0] utilizationCountOverdrawnAfterMission 0
scalar OsgEarthNet.uav[0] utilizationCountIdleState 11
scalar OsgEarthNet.uav[0] utilizationFail 0
scalar OsgEarthNet.uav[0] simulationTime 259200
scalar OsgEarthNet.uav[1] utilizationSecMission 14988.032173412
scalar OsgEarthNet.uav[1] utilizationSecMaintenance 15585.718659622
scalar OsgEarthNet.uav[1] utilizationSecCharge 109528.8402697
scalar OsgEarthNet.uav[1] utilizationSecIdle 119097.40789726
scalar OsgEarthNet.uav[1] utilizationEnergyMission 72188.904888153
scalar OsgEarthNet.uav[1] utilizationEnergyMaintenance 71751.812633514
scalar OsgEarthNet.uav[1] utilizationEnergyCharge 142069.8203125
scalar OsgEarthNet.uav[1] utilizationEnergyOverdrawMission 0
scalar OsgEarthNet.uav[1] utilizationEnergyOverdrawMaintenance 0
scalar OsgEarthNet.uav[1] utilizationCountMissions 35
scalar OsgEarthNet.uav[1] utilizationCountManeuversMission 485
scalar OsgEarthNet.uav[1] utilizationCountManeuversMaintenance 70
scalar OsgEarthNet.uav[1] utilizationCountChargeState 35
scalar OsgEarthNet.uav[1] utilizationCountOverdrawnAfterMission 0
scalar OsgEarthNet.uav[1] utilizationCountIdleState 35
scalar OsgEarthNet.uav[1] utilizationFail 0
scalar OsgEarthNet.uav[1] simulationTime 259200
scalar OsgEarthNet.uav[2] utilizationSecMission 23743.164949776
scalar OsgEarthNet.uav[2] utilizationSecMaintenance 27584.834050224
scalar OsgEarthNet.uav[2] utilizationSecCharge 187680
scalar OsgEarthNet.uav[2] utilizationSecIdle 20192
scalar OsgEarthNet.uav[2] utilizationEnergyMission 116532.9620757
scalar OsgEarthNet.uav[2] utilizationEnergyMaintenance 128483.84227012
scalar OsgEarthNet.uav[2] utilizationEnergyCharge 243944.28686523
scalar OsgEarthNet.uav[2] utilizationEnergyOverdrawMission 0
scalar OsgEarthNet.uav[2] utilizationEnergyOverdrawMaintenance 0
scalar OsgEarthNet.uav[2] utilizationCountMissions 58
scalar OsgEarthNet.uav[2] utilizationCountManeuversMission 838
scalar OsgEarthNet.uav[2] utilizationCountManeuversMaintenance 116
scalar OsgEarthNet.uav[2] utilizationCountChargeState 58
scalar OsgEarthNet.uav[2] utilizationCountOverdrawnAfterMission 0
scalar OsgEarthNet.uav[2] utilizationCountIdleState 59
scalar OsgEarthNet.uav[2] utilizationFail 0
scalar OsgEarthNet.uav[2] simulationTime 259200
scalar OsgEarthNet.uav[3] utilizationSecMission 22015.167465932
scalar OsgEarthNet.uav[3] utilizationSecMaintenance 21251.888799724
scalar OsgEarthNet.uav[3] utilizationSecCharge 159310
scalar OsgEarthNet.uav[3] utilizationSecIdle 56622.942734344
scalar OsgEarthNet.uav[3] utilizationEnergyMission 108400.94683075
scalar OsgEarthNet.uav[3] utilizationEnergyMaintenance 99092.747875214
scalar OsgEarthNet.uav[3] utilizationEnergyCharge 207496.97314453
scalar OsgEarthNet.uav[3] utilizationEnergyOverdrawMission 0
scalar OsgEarthNet.uav[3] utilizationEnergyOverdrawMaintenance 0
scalar OsgEarthNet.uav[3] utilizationCountMissions 49
scalar OsgEarthNet.uav[3] utilizationCountManeuversMission 762
scalar OsgEarthNet.uav[3] utilizationCountManeuversMaintenance 98
scalar OsgEarthNet.uav[3] utilizationCountChargeState 49
scalar OsgEarthNet.uav[3] utilizationCountOverdrawnAfterMission 0
scalar OsgEarthNet.uav[3] utilizationCountIdleState 50
scalar OsgEarthNet.uav[3] utilizationFail 0
scalar OsgEarthNet.uav[3] simulationTime 259200
scalar OsgEarthNet.uav[4] utilizationSecMission 25010.903329612
scalar OsgEarthNet.uav[4] utilizationSecMaintenance 26235.064135229
scalar OsgEarthNet.uav[4] utilizationSecCharge 184912.02953516
scalar OsgEarthNet.uav[4] utilizationSecIdle 23042.002
scalar OsgEarthNet.uav[4] utilizationEnergyMission 121366.03531265
scalar OsgEarthNet.uav[4] utilizationEnergyMaintenance 121533.29473877
scalar OsgEarthNet.uav[4] utilizationEnergyCharge 240795.26879883
scalar OsgEarthNet.uav[4] utilizationEnergyOverdrawMission 0
scalar OsgEarthNet.uav[4] utilizationEnergyOverdrawMaintenance 0
scalar OsgEarthNet.uav[4] utilizationCountMissions 58
scalar OsgEarthNet.uav[4] utilizationCountManeuversMission 851
scalar OsgEarthNet.uav[4] utilizationCountManeuversMaintenance 116
scalar OsgEarthNet.uav[4] utilizationCountChargeState 58
scalar OsgEarthNet.uav[4] utilizationCountOverdrawnAfterMission 0
scalar OsgEarthNet.uav[4] utilizationCountIdleState 58
scalar OsgEarthNet.uav[4] utilizationFail 0
scalar OsgEarthNet.uav[4] simulationTime 259200
scalar OsgEarthNet.uav[5] utilizationSecMission 25506.152526823
scalar OsgEarthNet.uav[5] utilizationSecMaintenance 22871.842473177
scalar OsgEarthNet.uav[5] utilizationSecCharge 172390
scalar OsgEarthNet.uav[5] utilizationSecIdle 38432.004
scalar OsgEarthNet.uav[5] utilizationEnergyMission 122795.0982907
scalar OsgEarthNet.uav[5] utilizationEnergyMaintenance 105477.74146271
scalar OsgEarthNet.uav[5] utilizationEnergyCharge 224848.33569336
scalar OsgEarthNet.uav[5] utilizationEnergyOverdrawMission 0
scalar OsgEarthNet.uav[5] utilizationEnergyOverdrawMaintenance 0
scalar OsgEarthNet.uav[5] utilizationCountMissions 53
scalar OsgEarthNet.uav[5] utilizationCountManeuversMission 727
scalar OsgEarthNet.uav[5] utilizationCountManeuversMaintenance 107
scalar OsgEarthNet.uav[5] utilizationCountChargeState 53
scalar OsgEarthNet.uav[5] utilizationCountOverdrawnAfterMission 0
scalar OsgEarthNet.uav[5] utilizationCountIdleState 54
scalar OsgEarthNet.uav[5] utilizationFail 0
scalar OsgEarthNet.uav[5] simulationTime 259200
scalar OsgEarthNet.uav[6] utilizationSecMission 12830.725008694
scalar OsgEarthNet.uav[6] utilizationSecMaintenance 15286.009171671
scalar OsgEarthNet.uav[6] utilizationSecCharge 102690
scalar OsgEarthNet.uav[6] utilizationSecIdle 128393.26481963
scalar OsgEarthNet.uav[6] utilizationEnergyMission 63166.916217804
scalar OsgEarthNet.uav[6] utilizationEnergyMaintenance 71508.074127197
scalar OsgEarthNet.uav[6] utilizationEnergyCharge 133664.6887207
scalar OsgEarthNet.uav[6] utilizationEnergyOverdrawMission 0
scalar OsgEarthNet.uav[6] utilizationEnergyOverdrawMaintenance 75.171905517578
scalar OsgEarthNet.uav[6] utilizationCountMissions 32
scalar OsgEarthNet.uav[6] utilizationCountManeuversMission 452
scalar OsgEarthNet.uav[6] utilizationCountManeuversMaintenance 64
scalar OsgEarthNet.uav[6] utilizationCountChargeState 32
scalar OsgEarthNet.uav[6] utilizationCountOverdrawnAfterMission 1
scalar OsgEarthNet.uav[6] utilizationCountIdleState 33
scalar OsgEarthNet.uav[6] utilizationFail 0
scalar OsgEarthNet.uav[6] simulationTime 259200
scalar OsgEarthNet.uav[7] utilizationSecMission 24283.297339082
scalar OsgEarthNet.uav[7] utilizationSecMaintenance 24604.698660918
scalar OsgEarthNet.uav[7] utilizationSecCharge 177530
scalar OsgEarthNet.uav[7] utilizationSecIdle 32782.003
scalar OsgEarthNet.uav[7] utilizationEnergyMission 119173.53956366
scalar OsgEarthNet.uav[7] utilizationEnergyMaintenance 114191.33938599
scalar OsgEarthNet.uav[7] utilizationEnergyCharge 230553.01049805
scalar OsgEarthNet.uav[7] utilizationEnergyOverdrawMission 0
scalar OsgEarthNet.uav[7] utilizationEnergyOverdrawMaintenance 0
scalar OsgEarthNet.uav[7] utilizationCountMissions 55
scalar OsgEarthNet.uav[7] utilizationCountManeuversMission 787
scalar OsgEarthNet.uav[7] utilizationCountManeuversMaintenance 111
scalar OsgEarthNet.uav[7] utilizationCountChargeState 55
scalar OsgEarthNet.uav[7] utilizationCountOverdrawnAfterMission 0
scalar OsgEarthNet.uav[7] utilizationCountIdleState 56
scalar OsgEarthNet.uav[7] utilizationFail 0
scalar OsgEarthNet.uav[7] simulationTime 259200
scalar OsgEarthNet.uav[8] utilizationSecMission 25957.64166015
scalar OsgEarthNet.uav[8] utilizationSecMaintenance 23718.359176392
scalar OsgEarthNet.uav[8] utilizationSecCharge 178381.99416346
scalar OsgEarthNet.uav[8] utilizationSecIdle 31142.004
scalar OsgEarthNet.uav[8] utilizationEnergyMission 126072.72195053
scalar OsgEarthNet.uav[8] utilizationEnergyMaintenance 109538.71301651
scalar OsgEarthNet.uav[8] utilizationEnergyCharge 232314.9197998
scalar OsgEarthNet.uav[8] utilizationEnergyOverdrawMission 0
scalar OsgEarthNet.uav[8] utilizationEnergyOverdrawMaintenance 0
scalar OsgEarthNet.uav[8] utilizationCountMissions 56
scalar OsgEarthNet.uav[8] utilizationCountManeuversMission 824
scalar OsgEarthNet.uav[8] utilizationCountManeuversMaintenance 112
scalar OsgEarthNet.uav[8] utilizationCountChargeState 56
scalar OsgEarthNet.uav[8] utilizationCountOverdrawnAfterMission 0
scalar OsgEarthNet.uav[8] utilizationCountIdleState 56
scalar OsgEarthNet.uav[8] utilizationFail 0
scalar OsgEarthNet.uav[8] simulationTime 259200
scalar OsgEarthNet.uav[9] utilizationSecMission 22371.97998008
scalar OsgEarthNet.uav[9] utilizationSecMaintenance 23896.01001992
scalar OsgEarthNet.uav[9] utilizationSecCharge 168770
scalar OsgEarthNet.uav[9] utilizationSecIdle 44162.009
scalar OsgEarthNet.uav[9] utilizationEnergyMission 109186.29500198
scalar OsgEarthNet.uav[9] utilizationEnergyMaintenance 111175.35398091
scalar OsgEarthNet.uav[9] utilizationEnergyCharge 219656.72143555
scalar OsgEarthNet.uav[9] utilizationEnergyOverdrawMission 0
scalar OsgEarthNet.uav[9] utilizationEnergyOverdrawMaintenance 0
scalar OsgEarthNet.uav[9] utilizationCountMissions 52
scalar OsgEarthNet.uav[9] utilizationCountManeuversMission 745
scalar OsgEarthNet.uav[9] utilizationCountManeuversMaintenance 105
scalar OsgEarthNet.uav[9] utilizationCountChargeState 52
scalar OsgEarthNet.uav[9] utilizationCountOverdrawnAfterMission 0
scalar OsgEarthNet.uav[9] utilizationCountIdleState 53
scalar OsgEarthNet.uav[9] utilizationFail 0
scalar OsgEarthNet.uav[9] simulationTime 259200
scalar OsgEarthNet.uav[10] utilizationSecMission 16008.953615643
scalar OsgEarthNet.uav[10] utilizationSecMaintenance 17902.584597532
scalar OsgEarthNet.uav[10] utilizationSecCharge 119503.97248607
scalar OsgEarthNet.uav[10] utilizationSecIdle 105784.48830075
scalar OsgEarthNet.uav[10] utilizationEnergyMission 75874.291229248
scalar OsgEarthNet.uav[10] utilizationEnergyMaintenance 84108.823493957
scalar OsgEarthNet.uav[10] utilizationEnergyCharge 157041.21228027
scalar OsgEarthNet.uav[10] utilizationEnergyOverdrawMission 0
scalar OsgEarthNet.uav[10] utilizationEnergyOverdrawMaintenance 0
scalar OsgEarthNet.uav[10] utilizationCountMissions 37
scalar OsgEarthNet.uav[10] utilizationCountManeuversMission 430
scalar OsgEarthNet.uav[10] utilizationCountManeuversMaintenance 74
scalar OsgEarthNet.uav[10] utilizationCountChargeState 37
scalar OsgEarthNet.uav[10] utilizationCountOverdrawnAfterMission 0
scalar OsgEarthNet.uav[10] utilizationCountIdleState 37
scalar OsgEarthNet.uav[10] utilizationFail 0
scalar OsgEarthNet.uav[10] simulationTime 259200
scalar OsgEarthNet.uav[11] utilizationSecMission 22813.817163661
scalar OsgEarthNet.uav[11] utilizationSecMaintenance 24739.613042621
scalar OsgEarthNet.uav[11] utilizationSecCharge 173340
scalar OsgEarthNet.uav[11] utilizationSecIdle 38306.568793718
scalar OsgEarthNet.uav[11] utilizationEnergyMission 109202.08350754
scalar OsgEarthNet.uav[11] utilizationEnergyMaintenance 115394.97950745
scalar OsgEarthNet.uav[11] utilizationEnergyCharge 224562.59472656
scalar OsgEarthNet.uav[11] utilizationEnergyOverdrawMission 0
scalar OsgEarthNet.uav[11] utilizationEnergyOverdrawMaintenance 0
scalar OsgEarthNet.uav[11] utilizationCountMissions 54
scalar OsgEarthNet.uav[11] utilizationCountManeuversMission 692
scalar OsgEarthNet.uav[11] utilizationCountManeuversMaintenance 108
scalar OsgEarthNet.uav[11] utilizationCountChargeState 54
scalar OsgEarthNet.uav[11] utilizationCountOverdrawnAfterMission 0
scalar OsgEarthNet.uav[11] utilizationCountIdleState 55
scalar OsgEarthNet.uav[11] utilizationFail 0
scalar OsgEarthNet.uav[11] simulationTime 259200
scalar OsgEarthNet.uav[12] utilizationSecMission 21558.672193357
scalar OsgEarthNet.uav[12] utilizationSecMaintenance 23055.153315913
scalar OsgEarthNet.uav[12] utilizationSecCharge 163677.59989593
scalar OsgEarthNet.uav[12] utilizationSecIdle 50908.573594796
scalar OsgEarthNet.uav[12] utilizationEnergyMission 104366.40944672
scalar OsgEarthNet.uav[12] utilizationEnergyMaintenance 107775.66258621
scalar OsgEarthNet.uav[12] utilizationEnergyCharge 213524.05908203
scalar OsgEarthNet.uav[12] utilizationEnergyOverdrawMission 0
scalar OsgEarthNet.uav[12] utilizationEnergyOverdrawMaintenance 0
scalar OsgEarthNet.uav[12] utilizationCountMissions 51
scalar OsgEarthNet.uav[12] utilizationCountManeuversMission 720
scalar OsgEarthNet.uav[12] utilizationCountManeuversMaintenance 102
scalar OsgEarthNet.uav[12] utilizationCountChargeState 51
scalar OsgEarthNet.uav[12] utilizationCountOverdrawnAfterMission 0
scalar OsgEarthNet.uav[12] utilizationCountIdleState 51
scalar OsgEarthNet.uav[12] utilizationFail 0
scalar OsgEarthNet.uav[12] simulationTime 259200
scalar OsgEarthNet.uav[13] utilizationSecMission 26466.820733993
scalar OsgEarthNet.uav[13] utilizationSecMaintenance 22393.974714769
scalar OsgEarthNet.uav[13] utilizationSecCharge 175157.19655124
scalar OsgEarthNet.uav[13] utilizationSecIdle 35182.007
scalar OsgEarthNet.uav[13] utilizationEnergyMission 128011.00566101
scalar OsgEarthNet.uav[13] utilizationEnergyMaintenance 104718.58768845
scalar OsgEarthNet.uav[13] utilizationEnergyCharge 229821.34643555
scalar OsgEarthNet.uav[13] utilizationEnergyOverdrawMission 0
scalar OsgEarthNet.uav[13] utilizationEnergyOverdrawMaintenance 0
scalar OsgEarthNet.uav[13] utilizationCountMissions 54
scalar OsgEarthNet.uav[13] utilizationCountManeuversMission 784
scalar OsgEarthNet.uav[13] utilizationCountManeuversMaintenance 108
scalar OsgEarthNet.uav[13] utilizationCountChargeState 54
scalar OsgEarthNet.uav[13] utilizationCountOverdrawnAfterMission 0
scalar OsgEarthNet.uav[13] utilizationCountIdleState 54
scalar OsgEarthNet.uav[13] utilizationFail 0
scalar OsgEarthNet.uav[13] simulationTime 259200
scalar OsgEarthNet.uav[14] utilizationSecMission 25122.972415496
scalar OsgEarthNet.uav[14] utilizationSecMaintenance 25346.196824536
scalar OsgEarthNet.uav[14] utilizationSecCharge 182972.50238064
scalar OsgEarthNet.uav[14] utilizationSecIdle 25758.327379333
scalar OsgEarthNet.uav[14] utilizationEnergyMission 121632.68770599
scalar OsgEarthNet.uav[14] utilizationEnergyMaintenance 117332.00720215
scalar OsgEarthNet.uav[14] utilizationEnergyCharge 237360.04516602
scalar OsgEarthNet.uav[14] utilizationEnergyOverdrawMission 0
scalar OsgEarthNet.uav[14] utilizationEnergyOverdrawMaintenance 0
scalar OsgEarthNet.uav[14] utilizationCountMissions 58
scalar OsgEarthNet.uav[14] utilizationCountManeuversMission 830
scalar OsgEarthNet.uav[14] utilizationCountManeuversMaintenance 116
scalar OsgEarthNet.uav[14] utilizationCountChargeState 58
scalar OsgEarthNet.uav[14] utilizationCountOverdrawnAfterMission 0
scalar OsgEarthNet.uav[14] utilizationCountIdleState 58
scalar OsgEarthNet.uav[14] utilizationFail 0
scalar OsgEarthNet.uav[14] simulationTime 259200
scalar OsgEarthNet.uav[15] utilizationSecMission 16169.474382676
scalar OsgEarthNet.uav[15] utilizationSecMaintenance 16393.339868689
scalar OsgEarthNet.uav[15] utilizationSecCharge 117650
scalar OsgEarthNet.uav[15] utilizationSecIdle 108987.18474864
scalar OsgEarthNet.uav[15] utilizationEnergyMission 78421.897735596
scalar OsgEarthNet.uav[15] utilizationEnergyMaintenance 76098.768802992
scalar OsgEarthNet.uav[15] utilizationEnergyCharge 153298.34594727
scalar OsgEarthNet.uav[15] utilizationEnergyOverdrawMission 0
scalar OsgEarthNet.uav[15] utilizationEnergyOverdrawMaintenance 156.1383972168
scalar OsgEarthNet.uav[15] utilizationCountMissions 36
scalar OsgEarthNet.uav[15] utilizationCountManeuversMission 459
scalar OsgEarthNet.uav[15] utilizationCountManeuversMaintenance 73
scalar OsgEarthNet.uav[15] utilizationCountChargeState 36
scalar OsgEarthNet.uav[15] utilizationCountOverdrawnAfterMission 1
scalar OsgEarthNet.uav[15] utilizationCountIdleState 37
scalar OsgEarthNet.uav[15] utilizationFail 0
scalar OsgEarthNet.uav[15] simulationTime 259200
scalar OsgEarthNet.uav[16] utilizationSecMission 16780.145556728
scalar OsgEarthNet.uav[16] utilizationSecMaintenance 17793.842686082
scalar OsgEarthNet.uav[16] utilizationSecCharge 124751.36531707
scalar OsgEarthNet.uav[16] utilizationSecIdle 99874.645440118
scalar OsgEarthNet.uav[16] utilizationEnergyMission 81266.728801727
scalar OsgEarthNet.uav[16] utilizationEnergyMaintenance 82479.23425293
scalar OsgEarthNet.uav[16] utilizationEnergyCharge 162529.39770508
scalar OsgEarthNet.uav[16] utilizationEnergyOverdrawMission 0
scalar OsgEarthNet.uav[16] utilizationEnergyOverdrawMaintenance 273.9440612793
scalar OsgEarthNet.uav[16] utilizationCountMissions 39
scalar OsgEarthNet.uav[16] utilizationCountManeuversMission 532
scalar OsgEarthNet.uav[16] utilizationCountManeuversMaintenance 78
scalar OsgEarthNet.uav[16] utilizationCountChargeState 39
scalar OsgEarthNet.uav[16] utilizationCountOverdrawnAfterMission 1
scalar OsgEarthNet.uav[16] utilizationCountIdleState 39
scalar OsgEarthNet.uav[16] utilizationFail 0
scalar OsgEarthNet.uav[16] simulationTime 259200
scalar OsgEarthNet.uav[17] utilizationSecMission 22202.939485659
scalar OsgEarthNet.uav[17] utilizationSecMaintenance 23893.044533021
scalar OsgEarthNet.uav[17] utilizationSecCharge 167620
scalar OsgEarthNet.uav[17] utilizationSecIdle 45484.01498132
scalar OsgEarthNet.uav[17] utilizationEnergyMission 108889.83611298
scalar OsgEarthNet.uav[17] utilizationEnergyMaintenance 111668.133255
scalar OsgEarthNet.uav[17] utilizationEnergyCharge 219656.58496094
scalar OsgEarthNet.uav[17] utilizationEnergyOverdrawMission 0
scalar OsgEarthNet.uav[17] utilizationEnergyOverdrawMaintenance 174.19819641113
scalar OsgEarthNet.uav[17] utilizationCountMissions 51
scalar OsgEarthNet.uav[17] utilizationCountManeuversMission 717
scalar OsgEarthNet.uav[17] utilizationCountManeuversMaintenance 102
scalar OsgEarthNet.uav[17] utilizationCountChargeState 51
scalar OsgEarthNet.uav[17] utilizationCountOverdrawnAfterMission 1
scalar OsgEarthNet.uav[17] utilizationCountIdleState 52
scalar OsgEarthNet.uav[17] utilizationFail 0
scalar OsgEarthNet.uav[17] simulationTime 259200
scalar OsgEarthNet.uav[18] utilizationSecMission 26727.568279286
scalar OsgEarthNet.uav[18] utilizationSecMaintenance 21799.92630122
scalar OsgEarthNet.uav[18] utilizationSecCharge 172352.87333883
scalar OsgEarthNet.uav[18] utilizationSecIdle 38319.631080665
scalar OsgEarthNet.uav[18] utilizationEnergyMission 126959.42400742
scalar OsgEarthNet.uav[18] utilizationEnergyMaintenance 101288.91442871
scalar OsgEarthNet.uav[18] utilizationEnergyCharge 226807.61865234
scalar OsgEarthNet.uav[18] utilizationEnergyOverdrawMission 0
scalar OsgEarthNet.uav[18] utilizationEnergyOverdrawMaintenance 0
scalar OsgEarthNet.uav[18] utilizationCountMissions 53
scalar OsgEarthNet.uav[18] utilizationCountManeuversMission 705
scalar OsgEarthNet.uav[18] utilizationCountManeuversMaintenance 106
scalar OsgEarthNet.uav[18] utilizationCountChargeState 53
scalar OsgEarthNet.uav[18] utilizationCountOverdrawnAfterMission 0
scalar OsgEarthNet.uav[18] utilizationCountIdleState 53
scalar OsgEarthNet.uav[18] utilizationFail 0
scalar OsgEarthNet.uav[18] simulationTime 259200
scalar OsgEarthNet.uav[19] utilizationSecMission 7651.3626472681
scalar OsgEarthNet.uav[19] utilizationSecMaintenance 8536.0757822574
scalar OsgEarthNet.uav[19] utilizationSecCharge 59440
scalar OsgEarthNet.uav[19] utilizationSecIdle 183572.56057047
scalar OsgEarthNet.uav[19] utilizationEnergyMission 36313.006668091
scalar OsgEarthNet.uav[19] utilizationEnergyMaintenance 39770.342849731
scalar OsgEarthNet.uav[19] utilizationEnergyCharge 78090.237304688
scalar OsgEarthNet.uav[19] utilizationEnergyOverdrawMission 0
scalar OsgEarthNet.uav[19] utilizationEnergyOverdrawMaintenance 109.43999481201
scalar OsgEarthNet.uav[19] utilizationCountMissions 18
scalar OsgEarthNet.uav[19] utilizationCountManeuversMission 245
scalar OsgEarthNet.uav[19] utilizationCountManeuversMaintenance 36
scalar OsgEarthNet.uav[19] utilizationCountChargeState 18
scalar OsgEarthNet.uav[19] utilizationCountOverdrawnAfterMission 1
scalar OsgEarthNet.uav[19] utilizationCountIdleState 19
scalar OsgEarthNet.uav[19] utilizationFail 0
scalar OsgEarthNet.uav[19] simulationTime 259200
scalar OsgEarthNet.uav[20] utilizationSecMission 22803.529827215
scalar OsgEarthNet.uav[20] utilizationSecMaintenance 24611.958243205
scalar OsgEarthNet.uav[20] utilizationSecCharge 169703.94049652
scalar OsgEarthNet.uav[20] utilizationSecIdle 42080.570433056
scalar OsgEarthNet.uav[20] utilizationEnergyMission 109379.3380394
scalar OsgEarthNet.uav[20] utilizationEnergyMaintenance 115539.15255356
scalar OsgEarthNet.uav[20] utilizationEnergyCharge 221401.02587891
scalar OsgEarthNet.uav[20] utilizationEnergyOverdrawMission 0
scalar OsgEarthNet.uav[20] utilizationEnergyOverdrawMaintenance 0
scalar OsgEarthNet.uav[20] utilizationCountMissions 53
scalar OsgEarthNet.uav[20] utilizationCountManeuversMission 646
scalar OsgEarthNet.uav[20] utilizationCountManeuversMaintenance 106
scalar OsgEarthNet.uav[20] utilizationCountChargeState 53
scalar OsgEarthNet.uav[20] utilizationCountOverdrawnAfterMission 0
scalar OsgEarthNet.uav[20] utilizationCountIdleState 53
scalar OsgEarthNet.uav[20] utilizationFail 0
scalar OsgEarthNet.uav[20] simulationTime 259200
scalar OsgEarthNet.uav[21] utilizationSecMission 17635.241466084
scalar OsgEarthNet.uav[21] utilizationSecMaintenance 16617.965748328
scalar OsgEarthNet.uav[21] utilizationSecCharge 123754.78178559
scalar OsgEarthNet.uav[21] utilizationSecIdle 101192.01
scalar OsgEarthNet.uav[21] utilizationEnergyMission 85625.758178711
scalar OsgEarthNet.uav[21] utilizationEnergyMaintenance 76794.228721619
scalar OsgEarthNet.uav[21] utilizationEnergyCharge 161436.27368164
scalar OsgEarthNet.uav[21] utilizationEnergyOverdrawMission 0
scalar OsgEarthNet.uav[21] utilizationEnergyOverdrawMaintenance 0
scalar OsgEarthNet.uav[21] utilizationCountMissions 39
scalar OsgEarthNet.uav[21] utilizationCountManeuversMission 522
scalar OsgEarthNet.uav[21] utilizationCountManeuversMaintenance 78
scalar OsgEarthNet.uav[21] utilizationCountChargeState 39
scalar OsgEarthNet.uav[21] utilizationCountOverdrawnAfterMission 0
scalar OsgEarthNet.uav[21] utilizationCountIdleState 39
scalar OsgEarthNet.uav[21] utilizationFail 0
scalar OsgEarthNet.uav[21] simulationTime 259200
scalar OsgEarthNet.uav[22] utilizationSecMission 24912.634913546
scalar OsgEarthNet.uav[22] utilizationSecMaintenance 25285.362086454
scalar OsgEarthNet.uav[22] utilizationSecCharge 182680
scalar OsgEarthNet.uav[22] utilizationSecIdle 26322.002
scalar OsgEarthNet.uav[22] utilizationEnergyMission 120939.87011115
scalar OsgEarthNet.uav[22] utilizationEnergyMaintenance 117263.4904213
scalar OsgEarthNet.uav[22] utilizationEnergyCharge 238703.18920898
scalar OsgEarthNet.uav[22] utilizationEnergyOverdrawMission 0
scalar OsgEarthNet.uav[22] utilizationEnergyOverdrawMaintenance 95.438583374023
scalar OsgEarthNet.uav[22] utilizationCountMissions 56
scalar OsgEarthNet.uav[22] utilizationCountManeuversMission 851
scalar OsgEarthNet.uav[22] utilizationCountManeuversMaintenance 113
scalar OsgEarthNet.uav[22] utilizationCountChargeState 56
scalar OsgEarthNet.uav[22] utilizationCountOverdrawnAfterMission 1
scalar OsgEarthNet.uav[22] utilizationCountIdleState 57
scalar OsgEarthNet.uav[22] utilizationFail 0
scalar OsgEarthNet.uav[22] simulationTime 259200
scalar OsgEarthNet.uav[23] utilizationSecMission 22114.438543858
scalar OsgEarthNet.uav[23] utilizationSecMaintenance 24644.388912251
scalar OsgEarthNet.uav[23] utilizationSecCharge 170161.22726605
scalar OsgEarthNet.uav[23] utilizationSecIdle 42279.944277845
scalar OsgEarthNet.uav[23] utilizationEnergyMission 107901.17074585
scalar OsgEarthNet.uav[23] utilizationEnergyMaintenance 114287.75116348
scalar OsgEarthNet.uav[23] utilizationEnergyCharge 221032.24365234
scalar OsgEarthNet.uav[23] utilizationEnergyOverdrawMission 0
scalar OsgEarthNet.uav[23] utilizationEnergyOverdrawMaintenance 0
scalar OsgEarthNet.uav[23] utilizationCountMissions 54
scalar OsgEarthNet.uav[23] utilizationCountManeuversMission 795
scalar OsgEarthNet.uav[23] utilizationCountManeuversMaintenance 108
scalar OsgEarthNet.uav[23] utilizationCountChargeState 54
scalar OsgEarthNet.uav[23] utilizationCountOverdrawnAfterMission 0
scalar OsgEarthNet.uav[23] utilizationCountIdleState 54
scalar OsgEarthNet.uav[23] utilizationFail 0
scalar OsgEarthNet.uav[23] simulationTime 259200
scalar OsgEarthNet.uav[24] utilizationSecMission 19397.770811715
scalar OsgEarthNet.uav[24] utilizationSecMaintenance 20616.706879289
scalar OsgEarthNet.uav[24] utilizationSecCharge 145879.78521111
scalar OsgEarthNet.uav[24] utilizationSecIdle 73305.736097889
scalar OsgEarthNet.uav[24] utilizationEnergyMission 93997.729564667
scalar OsgEarthNet.uav[24] utilizationEnergyMaintenance 95705.49981308
scalar OsgEarthNet.uav[24] utilizationEnergyCharge 190174.2565918
scalar OsgEarthNet.uav[24] utilizationEnergyOverdrawMission 0
scalar OsgEarthNet.uav[24] utilizationEnergyOverdrawMaintenance 0
scalar OsgEarthNet.uav[24] utilizationCountMissions 46
scalar OsgEarthNet.uav[24] utilizationCountManeuversMission 637
scalar OsgEarthNet.uav[24] utilizationCountManeuversMaintenance 92
scalar OsgEarthNet.uav[24] utilizationCountChargeState 46
scalar OsgEarthNet.uav[24] utilizationCountOverdrawnAfterMission 0
scalar OsgEarthNet.uav[24] utilizationCountIdleState 46
scalar OsgEarthNet.uav[24] utilizationFail 0
scalar OsgEarthNet.uav[24] simulationTime 259200
scalar OsgEarthNet.uav[25] utilizationSecMission 25244.268611121
scalar OsgEarthNet.uav[25] utilizationSecMaintenance 24733.681547839
scalar OsgEarthNet.uav[25] utilizationSecCharge 181812.87373063
scalar OsgEarthNet.uav[25] utilizationSecIdle 27409.175110411
scalar OsgEarthNet.uav[25] utilizationEnergyMission 123062.03333664
scalar OsgEarthNet.uav[25] utilizationEnergyMaintenance 114457.37131882
scalar OsgEarthNet.uav[25] utilizationEnergyCharge 237603.19921875
scalar OsgEarthNet.uav[25] utilizationEnergyOverdrawMission 0
scalar OsgEarthNet.uav[25] utilizationEnergyOverdrawMaintenance 0
scalar OsgEarthNet.uav[25] utilizationCountMissions 56
scalar OsgEarthNet.uav[25] utilizationCountManeuversMission 823
scalar OsgEarthNet.uav[25] utilizationCountManeuversMaintenance 112
scalar OsgEarthNet.uav[25] utilizationCountChargeState 56
scalar OsgEarthNet.uav[25] utilizationCountOverdrawnAfterMission 0
scalar OsgEarthNet.uav[25] utilizationCountIdleState 56
scalar OsgEarthNet.uav[25] utilizationFail 0
scalar OsgEarthNet.uav[25] simulationTime 259200
scalar OsgEarthNet.uav[26] utilizationSecMission 25676.182667558
scalar OsgEarthNet.uav[26] utilizationSecMaintenance 23581.988608346
scalar OsgEarthNet.uav[26] utilizationSecCharge 179899.8227241
scalar OsgEarthNet.uav[26] utilizationSecIdle 30042.005
scalar OsgEarthNet.uav[26] utilizationEnergyMission 125644.99472427
scalar OsgEarthNet.uav[26] utilizationEnergyMaintenance 110009.19985199
scalar OsgEarthNet.uav[26] utilizationEnergyCharge 234587.42797852
scalar OsgEarthNet.uav[26] utilizationEnergyOverdrawMission 0
scalar OsgEarthNet.uav[26] utilizationEnergyOverdrawMaintenance 0
scalar OsgEarthNet.uav[26] utilizationCountMissions 56
scalar OsgEarthNet.uav[26] utilizationCountManeuversMission 813
scalar OsgEarthNet.uav[26] utilizationCountManeuversMaintenance 112
scalar OsgEarthNet.uav[26] utilizationCountChargeState 56
scalar OsgEarthNet.uav[26] utilizationCountOverdrawnAfterMission 0
scalar OsgEarthNet.uav[26] utilizationCountIdleState 56
scalar OsgEarthNet.uav[26] utilizationFail 0
scalar OsgEarthNet.uav[26] simulationTime 259200
scalar OsgEarthNet.uav[27] utilizationSecMission 25093.326435733
scalar OsgEarthNet.uav[27] utilizationSecMaintenance 26663.873908531
scalar OsgEarthNet.uav[27] utilizationSecCharge 187350.79865574
scalar OsgEarthNet.uav[27] utilizationSecIdle 20092
scalar OsgEarthNet.uav[27] utilizationEnergyMission 124211.708004
scalar OsgEarthNet.uav[27] utilizationEnergyMaintenance 125160.23995209
scalar OsgEarthNet.uav[27] utilizationEnergyCharge 243656.05078125
scalar OsgEarthNet.uav[27] utilizationEnergyOverdrawMission 0
scalar OsgEarthNet.uav[27] utilizationEnergyOverdrawMaintenance 0
scalar OsgEarthNet.uav[27] utilizationCountMissions 59
scalar OsgEarthNet.uav[27] utilizationCountManeuversMission 800
scalar OsgEarthNet.uav[27] utilizationCountManeuversMaintenance 117
scalar OsgEarthNet.uav[27] utilizationCountChargeState 59
scalar OsgEarthNet.uav[27] utilizationCountOverdrawnAfterMission 0
scalar OsgEarthNet.uav[27] utilizationCountIdleState 59
scalar OsgEarthNet.uav[27] utilizationFail 0
scalar OsgEarthNet.uav[27] simulationTime 259200
scalar OsgEarthNet.uav[28] utilizationSecMission 25781.939351093
scalar OsgEarthNet.uav[28] utilizationSecMaintenance 22541.912651762
scalar OsgEarthNet.uav[28] utilizationSecCharge 175644.47394556
scalar OsgEarthNet.uav[28] utilizationSecIdle 35231.673051586
scalar OsgEarthNet.uav[28] utilizationEnergyMission 125337.25453186
scalar OsgEarthNet.uav[28] utilizationEnergyMaintenance 105754.84778213
scalar OsgEarthNet.uav[28] utilizationEnergyCharge 229544.56005859
scalar OsgEarthNet.uav[28] utilizationEnergyOverdrawMission 0
scalar OsgEarthNet.uav[28] utilizationEnergyOverdrawMaintenance 0
scalar OsgEarthNet.uav[28] utilizationCountMissions 55
scalar OsgEarthNet.uav[28] utilizationCountManeuversMission 818
scalar OsgEarthNet.uav[28] utilizationCountManeuversMaintenance 110
scalar OsgEarthNet.uav[28] utilizationCountChargeState 55
scalar OsgEarthNet.uav[28] utilizationCountOverdrawnAfterMission 0
scalar OsgEarthNet.uav[28] utilizationCountIdleState 55
scalar OsgEarthNet.uav[28] utilizationFail 0
scalar OsgEarthNet.uav[28] simulationTime 259200
scalar OsgEarthNet.uav[29] utilizationSecMission 10708.818380683
scalar OsgEarthNet.uav[29] utilizationSecMaintenance 12095.573806549
scalar OsgEarthNet.uav[29] utilizationSecCharge 84110
scalar OsgEarthNet.uav[29] utilizationSecIdle 152285.60681277
scalar OsgEarthNet.uav[29] utilizationEnergyMission 51565.78370285
scalar OsgEarthNet.uav[29] utilizationEnergyMaintenance 57813.12279129
scalar OsgEarthNet.uav[29] utilizationEnergyCharge 109607.75317383
scalar OsgEarthNet.uav[29] utilizationEnergyOverdrawMission 0
scalar OsgEarthNet.uav[29] utilizationEnergyOverdrawMaintenance 0
scalar OsgEarthNet.uav[29] utilizationCountMissions 26
scalar OsgEarthNet.uav[29] utilizationCountManeuversMission 338
scalar OsgEarthNet.uav[29] utilizationCountManeuversMaintenance 52
scalar OsgEarthNet.uav[29] utilizationCountChargeState 26
scalar OsgEarthNet.uav[29] utilizationCountOverdrawnAfterMission 0
scalar OsgEarthNet.uav[29] utilizationCountIdleState 27
scalar OsgEarthNet.uav[29] utilizationFail 0
scalar OsgEarthNet.uav[29] simulationTime 259200
scalar OsgEarthNet.uav[30] utilizationSecMission 23669.919838821
scalar OsgEarthNet.uav[30] utilizationSecMaintenance 24476.297653926
scalar OsgEarthNet.uav[30] utilizationSecCharge 174889.78657383
scalar OsgEarthNet.uav[30] utilizationSecIdle 36163.994933421
scalar OsgEarthNet.uav[30] utilizationEnergyMission 113450.66059113
scalar OsgEarthNet.uav[30] utilizationEnergyMaintenance 113236.91726685
scalar OsgEarthNet.uav[30] utilizationEnergyCharge 228200.80175781
scalar OsgEarthNet.uav[30] utilizationEnergyOverdrawMission 0
scalar OsgEarthNet.uav[30] utilizationEnergyOverdrawMaintenance 0
scalar OsgEarthNet.uav[30] utilizationCountMissions 54
scalar OsgEarthNet.uav[30] utilizationCountManeuversMission 740
scalar OsgEarthNet.uav[30] utilizationCountManeuversMaintenance 108
scalar OsgEarthNet.uav[30] utilizationCountChargeState 54
scalar OsgEarthNet.uav[30] utilizationCountOverdrawnAfterMission 0
scalar OsgEarthNet.uav[30] utilizationCountIdleState 54
scalar OsgEarthNet.uav[30] utilizationFail 0
scalar OsgEarthNet.uav[30] simulationTime 259200
scalar OsgEarthNet.uav[31] utilizationSecMission 26919.230995358
scalar OsgEarthNet.uav[31] utilizationSecMaintenance 24512.135994991
scalar OsgEarthNet.uav[31] utilizationSecCharge 185176.63100965
scalar OsgEarthNet.uav[31] utilizationSecIdle 22592.001
scalar OsgEarthNet.uav[31] utilizationEnergyMission 129605.77996063
scalar OsgEarthNet.uav[31] utilizationEnergyMaintenance 114372.08111572
scalar OsgEarthNet.uav[31] utilizationEnergyCharge 242810.08325195
scalar OsgEarthNet.uav[31] utilizationEnergyOverdrawMission 0
scalar OsgEarthNet.uav[31] utilizationEnergyOverdrawMaintenance 0
scalar OsgEarthNet.uav[31] utilizationCountMissions 57
scalar OsgEarthNet.uav[31] utilizationCountManeuversMission 811
scalar OsgEarthNet.uav[31] utilizationCountManeuversMaintenance 114
scalar OsgEarthNet.uav[31] utilizationCountChargeState 57
scalar OsgEarthNet.uav[31] utilizationCountOverdrawnAfterMission 0
scalar OsgEarthNet.uav[31] utilizationCountIdleState 57
scalar OsgEarthNet.uav[31] utilizationFail 0
scalar OsgEarthNet.uav[31] simulationTime 259200
scalar OsgEarthNet.uav[32] utilizationSecMission 22605.935660354
scalar OsgEarthNet.uav[32] utilizationSecMaintenance 21057.370863359
scalar OsgEarthNet.uav[32] utilizationSecCharge 155044.68547629
scalar OsgEarthNet.uav[32] utilizationSecIdle 60492.007
scalar OsgEarthNet.uav[32] utilizationEnergyMission 107973.02983475
scalar OsgEarthNet.uav[32] utilizationEnergyMaintenance 97991.225055695
scalar OsgEarthNet.uav[32] utilizationEnergyCharge 203047.24133301
scalar OsgEarthNet.uav[32] utilizationEnergyOverdrawMission 0
scalar OsgEarthNet.uav[32] utilizationEnergyOverdrawMaintenance 0
scalar OsgEarthNet.uav[32] utilizationCountMissions 48
scalar OsgEarthNet.uav[32] utilizationCountManeuversMission 653
scalar OsgEarthNet.uav[32] utilizationCountManeuversMaintenance 96
scalar OsgEarthNet.uav[32] utilizationCountChargeState 48
scalar OsgEarthNet.uav[32] utilizationCountOverdrawnAfterMission 0
scalar OsgEarthNet.uav[32] utilizationCountIdleState 48
scalar OsgEarthNet.uav[32] utilizationFail 0
scalar OsgEarthNet.uav[32] simulationTime 259200
scalar OsgEarthNet.uav[33] utilizationSecMission 12932.53876868
scalar OsgEarthNet.uav[33] utilizationSecMaintenance 11587.321666242
scalar OsgEarthNet.uav[33] utilizationSecCharge 85234.240820571
scalar OsgEarthNet.uav[33] utilizationSecIdle 149445.89774451
scalar OsgEarthNet.uav[33] utilizationEnergyMission 60892.468364716
scalar OsgEarthNet.uav[33] utilizationEnergyMaintenance 53289.712249756
scalar OsgEarthNet.uav[33] utilizationEnergyCharge 111441.10229492
scalar OsgEarthNet.uav[33] utilizationEnergyOverdrawMission 0
scalar OsgEarthNet.uav[33] utilizationEnergyOverdrawMaintenance 0
scalar OsgEarthNet.uav[33] utilizationCountMissions 27
scalar OsgEarthNet.uav[33] utilizationCountManeuversMission 359
scalar OsgEarthNet.uav[33] utilizationCountManeuversMaintenance 54
scalar OsgEarthNet.uav[33] utilizationCountChargeState 27
scalar OsgEarthNet.uav[33] utilizationCountOverdrawnAfterMission 0
scalar OsgEarthNet.uav[33] utilizationCountIdleState 27
scalar OsgEarthNet.uav[33] utilizationFail 0
scalar OsgEarthNet.uav[33] simulationTime 259200
scalar OsgEarthNet.uav[34] utilizationSecMission 21020.441810216
scalar OsgEarthNet.uav[34] utilizationSecMaintenance 20151.805090664
scalar OsgEarthNet.uav[34] utilizationSecCharge 148025.74409912
scalar OsgEarthNet.uav[34] utilizationSecIdle 70002.008
scalar OsgEarthNet.uav[34] utilizationEnergyMission 100885.78923798
scalar OsgEarthNet.uav[34] utilizationEnergyMaintenance 92930.147285461
scalar OsgEarthNet.uav[34] utilizationEnergyCharge 193563.70336914
scalar OsgEarthNet.uav[34] utilizationEnergyOverdrawMission 0
scalar OsgEarthNet.uav[34] utilizationEnergyOverdrawMaintenance 0
scalar OsgEarthNet.uav[34] utilizationCountMissions 46
scalar OsgEarthNet.uav[34] utilizationCountManeuversMission 654
scalar OsgEarthNet.uav[34] utilizationCountManeuversMaintenance 92
scalar OsgEarthNet.uav[34] utilizationCountChargeState 46
scalar OsgEarthNet.uav[34] utilizationCountOverdrawnAfterMission 0
scalar OsgEarthNet.uav[34] utilizationCountIdleState 46
scalar OsgEarthNet.uav[34] utilizationFail 0
scalar OsgEarthNet.uav[34] simulationTime 259200
scalar OsgEarthNet.uav[35] utilizationSecMission 23536.091545862
scalar OsgEarthNet.uav[35] utilizationSecMaintenance 21056.324510229
scalar OsgEarthNet.uav[35] utilizationSecCharge 160965.57794391
scalar OsgEarthNet.uav[35] utilizationSecIdle 53642.005
scalar OsgEarthNet.uav[35] utilizationEnergyMission 114487.20868301
scalar OsgEarthNet.uav[35] utilizationEnergyMaintenance 98500.257282257
scalar OsgEarthNet.uav[35] utilizationEnergyCharge 210370.06445312
scalar OsgEarthNet.uav[35] utilizationEnergyOverdrawMission 0
scalar OsgEarthNet.uav[35] utilizationEnergyOverdrawMaintenance 0
scalar OsgEarthNet.uav[35] utilizationCountMissions 50
scalar OsgEarthNet.uav[35] utilizationCountManeuversMission 694
scalar OsgEarthNet.uav[35] utilizationCountManeuversMaintenance 100
scalar OsgEarthNet.uav[35] utilizationCountChargeState 50
scalar OsgEarthNet.uav[35] utilizationCountOverdrawnAfterMission 0
scalar OsgEarthNet.uav[35] utilizationCountIdleState 50
scalar OsgEarthNet.uav[35] utilizationFail 0
scalar OsgEarthNet.uav[35] simulationTime 259200
scalar OsgEarthNet.uav[36] utilizationSecMission 22617.120930551
scalar OsgEarthNet.uav[36] utilizationSecMaintenance 22880.868069449
scalar OsgEarthNet.uav[36] utilizationSecCharge 164520
scalar OsgEarthNet.uav[36] utilizationSecIdle 49182.01
scalar OsgEarthNet.uav[36] utilizationEnergyMission 108739.62632751
scalar OsgEarthNet.uav[36] utilizationEnergyMaintenance 107889.20764087
scalar OsgEarthNet.uav[36] utilizationEnergyCharge 213500.02612305
scalar OsgEarthNet.uav[36] utilizationEnergyOverdrawMission 0
scalar OsgEarthNet.uav[36] utilizationEnergyOverdrawMaintenance 88.971801757812
scalar OsgEarthNet.uav[36] utilizationCountMissions 52
scalar OsgEarthNet.uav[36] utilizationCountManeuversMission 693
scalar OsgEarthNet.uav[36] utilizationCountManeuversMaintenance 104
scalar OsgEarthNet.uav[36] utilizationCountChargeState 51
scalar OsgEarthNet.uav[36] utilizationCountOverdrawnAfterMission 1
scalar OsgEarthNet.uav[36] utilizationCountIdleState 52
scalar OsgEarthNet.uav[36] utilizationFail 0
scalar OsgEarthNet.uav[36] simulationTime 259200
scalar OsgEarthNet.uav[37] utilizationSecMission 21541.82796399
scalar OsgEarthNet.uav[37] utilizationSecMaintenance 21024.486622098
scalar OsgEarthNet.uav[37] utilizationSecCharge 153980.01723439
scalar OsgEarthNet.uav[37] utilizationSecIdle 62653.667179517
scalar OsgEarthNet.uav[37] utilizationEnergyMission 103917.42433167
scalar OsgEarthNet.uav[37] utilizationEnergyMaintenance 98926.094486237
scalar OsgEarthNet.uav[37] utilizationEnergyCharge 201298.49438477
scalar OsgEarthNet.uav[37] utilizationEnergyOverdrawMission 0
scalar OsgEarthNet.uav[37] utilizationEnergyOverdrawMaintenance 0
scalar OsgEarthNet.uav[37] utilizationCountMissions 47
scalar OsgEarthNet.uav[37] utilizationCountManeuversMission 601
scalar OsgEarthNet.uav[37] utilizationCountManeuversMaintenance 94
scalar OsgEarthNet.uav[37] utilizationCountChargeState 47
scalar OsgEarthNet.uav[37] utilizationCountOverdrawnAfterMission 0
scalar OsgEarthNet.uav[37] utilizationCountIdleState 47
scalar OsgEarthNet.uav[37] utilizationFail 0
scalar OsgEarthNet.uav[37] simulationTime 259200
scalar OsgEarthNet.uav[38] utilizationSecMission 25774.544346854
scalar OsgEarthNet.uav[38] utilizationSecMaintenance 26234.767220511
scalar OsgEarthNet.uav[38] utilizationSecCharge 188138.68743264
scalar OsgEarthNet.uav[38] utilizationSecIdle 19052
scalar OsgEarthNet.uav[38] utilizationEnergyMission 124854.2379303
scalar OsgEarthNet.uav[38] utilizationEnergyMaintenance 123084.55807877
scalar OsgEarthNet.uav[38] utilizationEnergyCharge 245024.90649414
scalar OsgEarthNet.uav[38] utilizationEnergyOverdrawMission 0
scalar OsgEarthNet.uav[38] utilizationEnergyOverdrawMaintenance 0
scalar OsgEarthNet.uav[38] utilizationCountMissions 59
scalar OsgEarthNet.uav[38] utilizationCountManeuversMission 833
scalar OsgEarthNet.uav[38] utilizationCountManeuversMaintenance 117
scalar OsgEarthNet.uav[38] utilizationCountChargeState 59
scalar OsgEarthNet.uav[38] utilizationCountOverdrawnAfterMission 0
scalar OsgEarthNet.uav[38] utilizationCountIdleState 59
scalar OsgEarthNet.uav[38] utilizationFail 0
scalar OsgEarthNet.uav[38] simulationTime 259200
scalar OsgEarthNet.uav[39] utilizationSecMission 14217.598040523
scalar OsgEarthNet.uav[39] utilizationSecMaintenance 12680.468404067
scalar OsgEarthNet.uav[39] utilizationSecCharge 97399.91755541
scalar OsgEarthNet.uav[39] utilizationSecIdle 134902.015
scalar OsgEarthNet.uav[39] utilizationEnergyMission 70304.113162994
scalar OsgEarthNet.uav[39] utilizationEnergyMaintenance 58971.092205048
scalar OsgEarthNet.uav[39] utilizationEnergyCharge 127387.9074707
scalar OsgEarthNet.uav[39] utilizationEnergyOverdrawMission 0
scalar OsgEarthNet.uav[39] utilizationEnergyOverdrawMaintenance 0
scalar OsgEarthNet.uav[39] utilizationCountMissions 31
scalar OsgEarthNet.uav[39] utilizationCountManeuversMission 462
scalar OsgEarthNet.uav[39] utilizationCountManeuversMaintenance 62
scalar OsgEarthNet.uav[39] utilizationCountChargeState 31
scalar OsgEarthNet.uav[39] utilizationCountOverdrawnAfterMission 0
scalar OsgEarthNet.uav[39] utilizationCountIdleState 31
scalar OsgEarthNet.uav[39] utilizationFail 0
scalar OsgEarthNet.uav[39] simulationTime 259200
scalar OsgEarthNet.uav[40] utilizationSecMission 18868.619667758
scalar OsgEarthNet.uav[40] utilizationSecMaintenance 19008.153966563
scalar OsgEarthNet.uav[40] utilizationSecCharge 137910
scalar OsgEarthNet.uav[40] utilizationSecIdle 83413.225365679
scalar OsgEarthNet.uav[40] utilizationEnergyMission 90738.78238678
scalar OsgEarthNet.uav[40] utilizationEnergyMaintenance 89095.337291718
scalar OsgEarthNet.uav[40] utilizationEnergyCharge 180512.3215332
scalar OsgEarthNet.uav[40] utilizationEnergyOverdrawMission 0
scalar OsgEarthNet.uav[40] utilizationEnergyOverdrawMaintenance 0
scalar OsgEarthNet.uav[40] utilizationCountMissions 42
scalar OsgEarthNet.uav[40] utilizationCountManeuversMission 525
scalar OsgEarthNet.uav[40] utilizationCountManeuversMaintenance 84
scalar OsgEarthNet.uav[40] utilizationCountChargeState 42
scalar OsgEarthNet.uav[40] utilizationCountOverdrawnAfterMission 0
scalar OsgEarthNet.uav[40] utilizationCountIdleState 43
scalar OsgEarthNet.uav[40] utilizationFail 0
scalar OsgEarthNet.uav[40] simulationTime 259200
scalar OsgEarthNet.uav[41] utilizationSecMission 25003.801477083
scalar OsgEarthNet.uav[41] utilizationSecMaintenance 25620.202400587
scalar OsgEarthNet.uav[41] utilizationSecCharge 183381.38323281
scalar OsgEarthNet.uav[41] utilizationSecIdle 25194.611889516
scalar OsgEarthNet.uav[41] utilizationEnergyMission 121208.46863174
scalar OsgEarthNet.uav[41] utilizationEnergyMaintenance 119519.19898605
scalar OsgEarthNet.uav[41] utilizationEnergyCharge 239241.7434082
scalar OsgEarthNet.uav[41] utilizationEnergyOverdrawMission 0
scalar OsgEarthNet.uav[41] utilizationEnergyOverdrawMaintenance 0
scalar OsgEarthNet.uav[41] utilizationCountMissions 57
scalar OsgEarthNet.uav[41] utilizationCountManeuversMission 823
scalar OsgEarthNet.uav[41] utilizationCountManeuversMaintenance 114
scalar OsgEarthNet.uav[41] utilizationCountChargeState 57
scalar OsgEarthNet.uav[41] utilizationCountOverdrawnAfterMission 0
scalar OsgEarthNet.uav[41] utilizationCountIdleState 57
scalar OsgEarthNet.uav[41] utilizationFail 0
scalar OsgEarthNet.uav[41] simulationTime 259200
scalar OsgEarthNet.uav[42] utilizationSecMission 20088.33077381
scalar OsgEarthNet.uav[42] utilizationSecMaintenance 21309.591981295
scalar OsgEarthNet.uav[42] utilizationSecCharge 148502.23943086
scalar OsgEarthNet.uav[42] utilizationSecIdle 69299.83681404
scalar OsgEarthNet.uav[42] utilizationEnergyMission 96292.84821701
scalar OsgEarthNet.uav[42] utilizationEnergyMaintenance 99677.355556488
scalar OsgEarthNet.uav[42] utilizationEnergyCharge 194401.55249023
scalar OsgEarthNet.uav[42] utilizationEnergyOverdrawMission 0
scalar OsgEarthNet.uav[42] utilizationEnergyOverdrawMaintenance 91.567985534668
scalar OsgEarthNet.uav[42] utilizationCountMissions 46
scalar OsgEarthNet.uav[42] utilizationCountManeuversMission 606
scalar OsgEarthNet.uav[42] utilizationCountManeuversMaintenance 92
scalar OsgEarthNet.uav[42] utilizationCountChargeState 46
scalar OsgEarthNet.uav[42] utilizationCountOverdrawnAfterMission 1
scalar OsgEarthNet.uav[42] utilizationCountIdleState 46
scalar OsgEarthNet.uav[42] utilizationFail 0
scalar OsgEarthNet.uav[42] simulationTime 259200
scalar OsgEarthNet.uav[43] utilizationSecMission 25973.874873881
scalar OsgEarthNet.uav[43] utilizationSecMaintenance 24695.336550465
scalar OsgEarthNet.uav[43] utilizationSecCharge 184294.27029535
scalar OsgEarthNet.uav[43] utilizationSecIdle 24236.517280303
scalar OsgEarthNet.uav[43] utilizationEnergyMission 127043.6720047
scalar OsgEarthNet.uav[43] utilizationEnergyMaintenance 113893.97504807
scalar OsgEarthNet.uav[43] utilizationEnergyCharge 239954.19799805
scalar OsgEarthNet.uav[43] utilizationEnergyOverdrawMission 0
scalar OsgEarthNet.uav[43] utilizationEnergyOverdrawMaintenance 0
scalar OsgEarthNet.uav[43] utilizationCountMissions 57
scalar OsgEarthNet.uav[43] utilizationCountManeuversMission 798
scalar OsgEarthNet.uav[43] utilizationCountManeuversMaintenance 114
scalar OsgEarthNet.uav[43] utilizationCountChargeState 57
scalar OsgEarthNet.uav[43] utilizationCountOverdrawnAfterMission 0
scalar OsgEarthNet.uav[43] utilizationCountIdleState 57
scalar OsgEarthNet.uav[43] utilizationFail 0
scalar OsgEarthNet.uav[43] simulationTime 259200
scalar OsgEarthNet.uav[44] utilizationSecMission 25803.362040986
scalar OsgEarthNet.uav[44] utilizationSecMaintenance 23318.750755817
scalar OsgEarthNet.uav[44] utilizationSecCharge 177125.8822032
scalar OsgEarthNet.uav[44] utilizationSecIdle 32952.004
scalar OsgEarthNet.uav[44] utilizationEnergyMission 125278.68300629
scalar OsgEarthNet.uav[44] utilizationEnergyMaintenance 108928.88158035
scalar OsgEarthNet.uav[44] utilizationEnergyCharge 231527.68676758
scalar OsgEarthNet.uav[44] utilizationEnergyOverdrawMission 0
scalar OsgEarthNet.uav[44] utilizationEnergyOverdrawMaintenance 0
scalar OsgEarthNet.uav[44] utilizationCountMissions 55
scalar OsgEarthNet.uav[44] utilizationCountManeuversMission 831
scalar OsgEarthNet.uav[44] utilizationCountManeuversMaintenance 110
scalar OsgEarthNet.uav[44] utilizationCountChargeState 55
scalar OsgEarthNet.uav[44] utilizationCountOverdrawnAfterMission 0
scalar OsgEarthNet.uav[44] utilizationCountIdleState 55
scalar OsgEarthNet.uav[44] utilizationFail 0
scalar OsgEarthNet.uav[44] simulationTime 259200
scalar OsgEarthNet.uav[45] utilizationSecMission 24606.77110244
scalar OsgEarthNet.uav[45] utilizationSecMaintenance 26082.171625046
scalar OsgEarthNet.uav[45] utilizationSecCharge 185599.05427251
scalar OsgEarthNet.uav[45] utilizationSecIdle 22912.002
scalar OsgEarthNet.uav[45] utilizationEnergyMission 120491.42543411
scalar OsgEarthNet.uav[45] utilizationEnergyMaintenance 121636.46648026
scalar OsgEarthNet.uav[45] utilizationEnergyCharge 242198.44873047
scalar OsgEarthNet.uav[45] utilizationEnergyOverdrawMission 0
scalar OsgEarthNet.uav[45] utilizationEnergyOverdrawMaintenance 0
scalar OsgEarthNet.uav[45] utilizationCountMissions 57
scalar OsgEarthNet.uav[45] utilizationCountManeuversMission 801
scalar OsgEarthNet.uav[45] utilizationCountManeuversMaintenance 114
scalar OsgEarthNet.uav[45] utilizationCountChargeState 57
scalar OsgEarthNet.uav[45] utilizationCountOverdrawnAfterMission 0
scalar OsgEarthNet.uav[45] utilizationCountIdleState 57
scalar OsgEarthNet.uav[45] utilizationFail 0
scalar OsgEarthNet.uav[45] simulationTime 259200
scalar OsgEarthNet.uav[46] utilizationSecMission 24547.203112231
scalar OsgEarthNet.uav[46] utilizationSecMaintenance 26743.167758885
scalar OsgEarthNet.uav[46] utilizationSecCharge 187927.62812888
scalar OsgEarthNet.uav[46] utilizationSecIdle 19982
scalar OsgEarthNet.uav[46] utilizationEnergyMission 118295.55896759
scalar OsgEarthNet.uav[46] utilizationEnergyMaintenance 125437.86723328
scalar OsgEarthNet.uav[46] utilizationEnergyCharge 245755.52539062
scalar OsgEarthNet.uav[46] utilizationEnergyOverdrawMission 0
scalar OsgEarthNet.uav[46] utilizationEnergyOverdrawMaintenance 0
scalar OsgEarthNet.uav[46] utilizationCountMissions 58
scalar OsgEarthNet.uav[46] utilizationCountManeuversMission 828
scalar OsgEarthNet.uav[46] utilizationCountManeuversMaintenance 116
scalar OsgEarthNet.uav[46] utilizationCountChargeState 58
scalar OsgEarthNet.uav[46] utilizationCountOverdrawnAfterMission 0
scalar OsgEarthNet.uav[46] utilizationCountIdleState 58
scalar OsgEarthNet.uav[46] utilizationFail 0
scalar OsgEarthNet.uav[46] simulationTime 259200
scalar OsgEarthNet.uav[47] utilizationSecMission 23752.89214091
scalar OsgEarthNet.uav[47] utilizationSecMaintenance 21480.515138121
scalar OsgEarthNet.uav[47] utilizationSecCharge 164310
scalar OsgEarthNet.uav[47] utilizationSecIdle 49656.591720969
scalar OsgEarthNet.uav[47] utilizationEnergyMission 113750.04222107
scalar OsgEarthNet.uav[47] utilizationEnergyMaintenance 101058.34202957
scalar OsgEarthNet.uav[47] utilizationEnergyCharge 214641.36694336
scalar OsgEarthNet.uav[47] utilizationEnergyOverdrawMission 0
scalar OsgEarthNet.uav[47] utilizationEnergyOverdrawMaintenance 0
scalar OsgEarthNet.uav[47] utilizationCountMissions 50
scalar OsgEarthNet.uav[47] utilizationCountManeuversMission 633
scalar OsgEarthNet.uav[47] utilizationCountManeuversMaintenance 100
scalar OsgEarthNet.uav[47] utilizationCountChargeState 50
scalar OsgEarthNet.uav[47] utilizationCountOverdrawnAfterMission 0
scalar OsgEarthNet.uav[47] utilizationCountIdleState 50
scalar OsgEarthNet.uav[47] utilizationFail 0
scalar OsgEarthNet.uav[47] simulationTime 259200
scalar OsgEarthNet.uav[48] utilizationSecMission 3216.4790040325
scalar OsgEarthNet.uav[48] utilizationSecMaintenance 2099.1409846473
scalar OsgEarthNet.uav[48] utilizationSecCharge 19470
scalar OsgEarthNet.uav[48] utilizationSecIdle 234414.37901132
scalar OsgEarthNet.uav[48] utilizationEnergyMission 16075.931594849
scalar OsgEarthNet.uav[48] utilizationEnergyMaintenance 9900.0686454773
scalar OsgEarthNet.uav[48] utilizationEnergyCharge 25320.978515625
scalar OsgEarthNet.uav[48] utilizationEnergyOverdrawMission 0
scalar OsgEarthNet.uav[48] utilizationEnergyOverdrawMaintenance 0
scalar OsgEarthNet.uav[48] utilizationCountMissions 6
scalar OsgEarthNet.uav[48] utilizationCountManeuversMission 73
scalar OsgEarthNet.uav[48] utilizationCountManeuversMaintenance 12
scalar OsgEarthNet.uav[48] utilizationCountChargeState 6
scalar OsgEarthNet.uav[48] utilizationCountOverdrawnAfterMission 0
scalar OsgEarthNet.uav[48] utilizationCountIdleState 6
scalar OsgEarthNet.uav[48] utilizationFail 0
scalar OsgEarthNet.uav[48] simulationTime 259200
scalar OsgEarthNet.uav[49] utilizationSecMission 27502.670949005
scalar OsgEarthNet.uav[49] utilizationSecMaintenance 22492.697119468
scalar OsgEarthNet.uav[49] utilizationSecCharge 181222.62693153
scalar OsgEarthNet.uav[49] utilizationSecIdle 27982.004
scalar OsgEarthNet.uav[49] utilizationEnergyMission 133905.51299286
scalar OsgEarthNet.uav[49] utilizationEnergyMaintenance 105214.86089325
scalar OsgEarthNet.uav[49] utilizationEnergyCharge 237206.18701172
scalar OsgEarthNet.uav[49] utilizationEnergyOverdrawMission 0
scalar OsgEarthNet.uav[49] utilizationEnergyOverdrawMaintenance 0
scalar OsgEarthNet.uav[49] utilizationCountMissions 56
scalar OsgEarthNet.uav[49] utilizationCountManeuversMission 801
scalar OsgEarthNet.uav[49] utilizationCountManeuversMaintenance 112
scalar OsgEarthNet.uav[49] utilizationCountChargeState 56
scalar OsgEarthNet.uav[49] utilizationCountOverdrawnAfterMission 0
scalar OsgEarthNet.uav[49] utilizationCountIdleState 56
scalar OsgEarthNet.uav[49] utilizationFail 0
scalar OsgEarthNet.uav[49] simulationTime 259200
scalar OsgEarthNet.uav[50] utilizationSecMission 27413.19414636
scalar OsgEarthNet.uav[50] utilizationSecMaintenance 24274.80485364
scalar OsgEarthNet.uav[50] utilizationSecCharge 184740
scalar OsgEarthNet.uav[50] utilizationSecIdle 22772
scalar OsgEarthNet.uav[50] utilizationEnergyMission 129907.25012599
scalar OsgEarthNet.uav[50] utilizationEnergyMaintenance 111947.46631622
scalar OsgEarthNet.uav[50] utilizationEnergyCharge 240493.50805664
scalar OsgEarthNet.uav[50] utilizationEnergyOverdrawMission 0
scalar OsgEarthNet.uav[50] utilizationEnergyOverdrawMaintenance 0
scalar OsgEarthNet.uav[50] utilizationCountMissions 57
scalar OsgEarthNet.uav[50] utilizationCountManeuversMission 759
scalar OsgEarthNet.uav[50] utilizationCountManeuversMaintenance 114
scalar OsgEarthNet.uav[50] utilizationCountChargeState 57
scalar OsgEarthNet.uav[50] utilizationCountOverdrawnAfterMission 0
scalar OsgEarthNet.uav[50] utilizationCountIdleState 58
scalar OsgEarthNet.uav[50] utilizationFail 0
scalar OsgEarthNet.uav[50] simulationTime 259200
scalar OsgEarthNet.uav[51] utilizationSecMission 6563.789887068
scalar OsgEarthNet.uav[51] utilizationSecMaintenance 5632.6450857999
scalar OsgEarthNet.uav[51] utilizationSecCharge 43290
scalar OsgEarthNet.uav[51] utilizationSecIdle 203713.56402713
scalar OsgEarthNet.uav[51] utilizationEnergyMission 31504.575714111
scalar OsgEarthNet.uav[51] utilizationEnergyMaintenance 25783.485015869
scalar OsgEarthNet.uav[51] utilizationEnergyCharge 57175.017578125
scalar OsgEarthNet.uav[51] utilizationEnergyOverdrawMission 0
scalar OsgEarthNet.uav[51] utilizationEnergyOverdrawMaintenance 0
scalar OsgEarthNet.uav[51] utilizationCountMissions 13
scalar OsgEarthNet.uav[51] utilizationCountManeuversMission 150
scalar OsgEarthNet.uav[51] utilizationCountManeuversMaintenance 26
scalar OsgEarthNet.uav[51] utilizationCountChargeState 13
scalar OsgEarthNet.uav[51] utilizationCountOverdrawnAfterMission 0
scalar OsgEarthNet.uav[51] utilizationCountIdleState 13
scalar OsgEarthNet.uav[51] utilizationFail 0
scalar OsgEarthNet.uav[51] simulationTime 259200
scalar OsgEarthNet.uav[52] utilizationSecMission 22251.60656589
scalar OsgEarthNet.uav[52] utilizationSecMaintenance 20850.398222581
scalar OsgEarthNet.uav[52] utilizationSecCharge 151655.98821153
scalar OsgEarthNet.uav[52] utilizationSecIdle 64442.006
scalar OsgEarthNet.uav[52] utilizationEnergyMission 105813.44990158
scalar OsgEarthNet.uav[52] utilizationEnergyMaintenance 96599.898406982
scalar OsgEarthNet.uav[52] utilizationEnergyCharge 199127.11755371
scalar OsgEarthNet.uav[52] utilizationEnergyOverdrawMission 0
scalar OsgEarthNet.uav[52] utilizationEnergyOverdrawMaintenance 0
scalar OsgEarthNet.uav[52] utilizationCountMissions 47
scalar OsgEarthNet.uav[52] utilizationCountManeuversMission 619
scalar OsgEarthNet.uav[52] utilizationCountManeuversMaintenance 94
scalar OsgEarthNet.uav[52] utilizationCountChargeState 47
scalar OsgEarthNet.uav[52] utilizationCountOverdrawnAfterMission 0
scalar OsgEarthNet.uav[52] utilizationCountIdleState 47
scalar OsgEarthNet.uav[52] utilizationFail 0
scalar OsgEarthNet.uav[52] simulationTime 259200
scalar OsgEarthNet.uav[53] utilizationSecMission 21337.266445404
scalar OsgEarthNet.uav[53] utilizationSecMaintenance 22034.490398342
scalar OsgEarthNet.uav[53] utilizationSecCharge 158420
scalar OsgEarthNet.uav[53] utilizationSecIdle 57408.242156253
scalar OsgEarthNet.uav[53] utilizationEnergyMission 103171.76288986
scalar OsgEarthNet.uav[53] utilizationEnergyMaintenance 102658.70843887
scalar OsgEarthNet.uav[53] utilizationEnergyCharge 205634.52905273
scalar OsgEarthNet.uav[53] utilizationEnergyOverdrawMission 0
scalar OsgEarthNet.uav[53] utilizationEnergyOverdrawMaintenance 0
scalar OsgEarthNet.uav[53] utilizationCountMissions 49
scalar OsgEarthNet.uav[53] utilizationCountManeuversMission 720
scalar OsgEarthNet.uav[53] utilizationCountManeuversMaintenance 98
scalar OsgEarthNet.uav[53] utilizationCountChargeState 49
scalar OsgEarthNet.uav[53] utilizationCountOverdrawnAfterMission 0
scalar OsgEarthNet.uav[53] utilizationCountIdleState 49
scalar OsgEarthNet.uav[53] utilizationFail 0
scalar OsgEarthNet.uav[53] simulationTime 259200
scalar OsgEarthNet.uav[54] utilizationSecMission 24969.686303041
scalar OsgEarthNet.uav[54] utilizationSecMaintenance 23138.306696959
scalar OsgEarthNet.uav[54] utilizationSecCharge 172070
scalar OsgEarthNet.uav[54] utilizationSecIdle 39022.006
scalar OsgEarthNet.uav[54] utilizationEnergyMission 119721.29883631
scalar OsgEarthNet.uav[54] utilizationEnergyMaintenance 107231.42237854
scalar OsgEarthNet.uav[54] utilizationEnergyCharge 224016.09863281
scalar OsgEarthNet.uav[54] utilizationEnergyOverdrawMission 0
scalar OsgEarthNet.uav[54] utilizationEnergyOverdrawMaintenance 0
scalar OsgEarthNet.uav[54] utilizationCountMissions 53
scalar OsgEarthNet.uav[54] utilizationCountManeuversMission 716
scalar OsgEarthNet.uav[54] utilizationCountManeuversMaintenance 107
scalar OsgEarthNet.uav[54] utilizationCountChargeState 53
scalar OsgEarthNet.uav[54] utilizationCountOverdrawnAfterMission 0
scalar OsgEarthNet.uav[54] utilizationCountIdleState 54
scalar OsgEarthNet.uav[54] utilizationFail 0
scalar OsgEarthNet.uav[54] simulationTime 259200
scalar OsgEarthNet.uav[55] utilizationSecMission 22375.550825289
scalar OsgEarthNet.uav[55] utilizationSecMaintenance 26768.735874782
scalar OsgEarthNet.uav[55] utilizationSecCharge 178303.70629993
scalar OsgEarthNet.uav[55] utilizationSecIdle 31752.006
scalar OsgEarthNet.uav[55] utilizationEnergyMission 109281.4279213
scalar OsgEarthNet.uav[55] utilizationEnergyMaintenance 124968.1253891
scalar OsgEarthNet.uav[55] utilizationEnergyCharge 232978.74438477
scalar OsgEarthNet.uav[55] utilizationEnergyOverdrawMission 0
scalar OsgEarthNet.uav[55] utilizationEnergyOverdrawMaintenance 0
scalar OsgEarthNet.uav[55] utilizationCountMissions 55
scalar OsgEarthNet.uav[55] utilizationCountManeuversMission 673
scalar OsgEarthNet.uav[55] utilizationCountManeuversMaintenance 110
scalar OsgEarthNet.uav[55] utilizationCountChargeState 55
scalar OsgEarthNet.uav[55] utilizationCountOverdrawnAfterMission 0
scalar OsgEarthNet.uav[55] utilizationCountIdleState 55
scalar OsgEarthNet.uav[55] utilizationFail 0
scalar OsgEarthNet.uav[55] simulationTime 259200
scalar OsgEarthNet.uav[56] utilizationSecMission 13987.061130343
scalar OsgEarthNet.uav[56] utilizationSecMaintenance 13894.73510479
scalar OsgEarthNet.uav[56] utilizationSecCharge 98275.01678909
scalar OsgEarthNet.uav[56] utilizationSecIdle 133043.18597578
scalar OsgEarthNet.uav[56] utilizationEnergyMission 66042.336826324
scalar OsgEarthNet.uav[56] utilizationEnergyMaintenance 64710.645462036
scalar OsgEarthNet.uav[56] utilizationEnergyCharge 128432.46276855
scalar OsgEarthNet.uav[56] utilizationEnergyOverdrawMission 0
scalar OsgEarthNet.uav[56] utilizationEnergyOverdrawMaintenance 211.54135131836
scalar OsgEarthNet.uav[56] utilizationCountMissions 31
scalar OsgEarthNet.uav[56] utilizationCountManeuversMission 386
scalar OsgEarthNet.uav[56] utilizationCountManeuversMaintenance 62
scalar OsgEarthNet.uav[56] utilizationCountChargeState 31
scalar OsgEarthNet.uav[56] utilizationCountOverdrawnAfterMission 1
scalar OsgEarthNet.uav[56] utilizationCountIdleState 31
scalar OsgEarthNet.uav[56] utilizationFail 0
scalar OsgEarthNet.uav[56] simulationTime 259200
scalar OsgEarthNet.uav[57] utilizationSecMission 12573.375094575
scalar OsgEarthNet.uav[57] utilizationSecMaintenance 9418.5536396841
scalar OsgEarthNet.uav[57] utilizationSecCharge 79120
scalar OsgEarthNet.uav[57] utilizationSecIdle 158088.07026574
scalar OsgEarthNet.uav[57] utilizationEnergyMission 59406.669330597
scalar OsgEarthNet.uav[57] utilizationEnergyMaintenance 43696.144958496
scalar OsgEarthNet.uav[57] utilizationEnergyCharge 104034.45263672
scalar OsgEarthNet.uav[57] utilizationEnergyOverdrawMission 0
scalar OsgEarthNet.uav[57] utilizationEnergyOverdrawMaintenance 0
scalar OsgEarthNet.uav[57] utilizationCountMissions 24
scalar OsgEarthNet.uav[57] utilizationCountManeuversMission 323
scalar OsgEarthNet.uav[57] utilizationCountManeuversMaintenance 48
scalar OsgEarthNet.uav[57] utilizationCountChargeState 24
scalar OsgEarthNet.uav[57] utilizationCountOverdrawnAfterMission 0
scalar OsgEarthNet.uav[57] utilizationCountIdleState 23
scalar OsgEarthNet.uav[57] utilizationFail 0
scalar OsgEarthNet.uav[57] simulationTime 259200
scalar OsgEarthNet.uav[58] utilizationSecMission 13613.021502199
scalar OsgEarthNet.uav[58] utilizationSecMaintenance 14366.934950386
scalar OsgEarthNet.uav[58] utilizationSecCharge 99090
scalar OsgEarthNet.uav[58] utilizationSecIdle 132130.04254741
scalar OsgEarthNet.uav[58] utilizationEnergyMission 65938.658740997
scalar OsgEarthNet.uav[58] utilizationEnergyMaintenance 67737.478533336
scalar OsgEarthNet.uav[58] utilizationEnergyCharge 130417.86376953
scalar OsgEarthNet.uav[58] utilizationEnergyOverdrawMission 0
scalar OsgEarthNet.uav[58] utilizationEnergyOverdrawMaintenance 208.10482788086
scalar OsgEarthNet.uav[58] utilizationCountMissions 31
scalar OsgEarthNet.uav[58] utilizationCountManeuversMission 452
scalar OsgEarthNet.uav[58] utilizationCountManeuversMaintenance 62
scalar OsgEarthNet.uav[58] utilizationCountChargeState 30
scalar OsgEarthNet.uav[58] utilizationCountOverdrawnAfterMission 1
scalar OsgEarthNet.uav[58] utilizationCountIdleState 28
scalar OsgEarthNet.uav[58] utilizationFail 0
scalar OsgEarthNet.uav[58] simulationTime 259200
scalar OsgEarthNet.uav[59] utilizationSecMission 13985.970283057
scalar OsgEarthNet.uav[59] utilizationSecMaintenance 13762.652371268
scalar OsgEarthNet.uav[59] utilizationSecCharge 99590
scalar OsgEarthNet.uav[59] utilizationSecIdle 131861.37634568
scalar OsgEarthNet.uav[59] utilizationEnergyMission 68762.315677643
scalar OsgEarthNet.uav[59] utilizationEnergyMaintenance 62597.049297333
scalar OsgEarthNet.uav[59] utilizationEnergyCharge 130315.17041016
scalar OsgEarthNet.uav[59] utilizationEnergyOverdrawMission 0
scalar OsgEarthNet.uav[59] utilizationEnergyOverdrawMaintenance 0
scalar OsgEarthNet.uav[59] utilizationCountMissions 31
scalar OsgEarthNet.uav[59] utilizationCountManeuversMission 460
scalar OsgEarthNet.uav[59] utilizationCountManeuversMaintenance 62
scalar OsgEarthNet.uav[59] utilizationCountChargeState 31
scalar OsgEarthNet.uav[59] utilizationCountOverdrawnAfterMission 0
scalar OsgEarthNet.uav[59] utilizationCountIdleState 29
scalar OsgEarthNet.uav[59] utilizationFail 0
scalar OsgEarthNet.uav[59] simulationTime 259200
scalar OsgEarthNet.uav[60] utilizationSecMission 20780.157726453
scalar OsgEarthNet.uav[60] utilizationSecMaintenance 22883.515319244
scalar OsgEarthNet.uav[60] utilizationSecCharge 158101.05436199
scalar OsgEarthNet.uav[60] utilizationSecIdle 57435.271592313
scalar OsgEarthNet.uav[60] utilizationEnergyMission 102401.63510513
scalar OsgEarthNet.uav[60] utilizationEnergyMaintenance 105829.90134048
scalar OsgEarthNet.uav[60] utilizationEnergyCharge 206144.17346191
scalar OsgEarthNet.uav[60] utilizationEnergyOverdrawMission 0
scalar OsgEarthNet.uav[60] utilizationEnergyOverdrawMaintenance 0
scalar OsgEarthNet.uav[60] utilizationCountMissions 50
scalar OsgEarthNet.uav[60] utilizationCountManeuversMission 724
scalar OsgEarthNet.uav[60] utilizationCountManeuversMaintenance 100
scalar OsgEarthNet.uav[60] utilizationCountChargeState 50
scalar OsgEarthNet.uav[60] utilizationCountOverdrawnAfterMission 0
scalar OsgEarthNet.uav[60] utilizationCountIdleState 47
scalar OsgEarthNet.uav[60] utilizationFail 0
scalar OsgEarthNet.uav[60] simulationTime 259200
scalar OsgEarthNet.uav[61] utilizationSecMission 16702.280867973
scalar OsgEarthNet.uav[61] utilizationSecMaintenance 22947.592414415
scalar OsgEarthNet.uav[61] utilizationSecCharge 145880
scalar OsgEarthNet.uav[61] utilizationSecIdle 73670.125717612
scalar OsgEarthNet.uav[61] utilizationEnergyMission 81702.534515381
scalar OsgEarthNet.uav[61] utilizationEnergyMaintenance 106838.13122559
scalar OsgEarthNet.uav[61] utilizationEnergyCharge 190692.08837891
scalar OsgEarthNet.uav[61] utilizationEnergyOverdrawMission 0
scalar OsgEarthNet.uav[61] utilizationEnergyOverdrawMaintenance 22.602695465088
scalar OsgEarthNet.uav[61] utilizationCountMissions 45
scalar OsgEarthNet.uav[61] utilizationCountManeuversMission 608
scalar OsgEarthNet.uav[61] utilizationCountManeuversMaintenance 90
scalar OsgEarthNet.uav[61] utilizationCountChargeState 45
scalar OsgEarthNet.uav[61] utilizationCountOverdrawnAfterMission 1
scalar OsgEarthNet.uav[61] utilizationCountIdleState 41
scalar OsgEarthNet.uav[61] utilizationFail 0
scalar OsgEarthNet.uav[61] simulationTime 259200
scalar OsgEarthNet.uav[62] utilizationSecMission 20697.465935559
scalar OsgEarthNet.uav[62] utilizationSecMaintenance 22424.225621734
scalar OsgEarthNet.uav[62] utilizationSecCharge 154799.08782879
scalar OsgEarthNet.uav[62] utilizationSecIdle 61279.219613916
scalar OsgEarthNet.uav[62] utilizationEnergyMission 98791.938415527
scalar OsgEarthNet.uav[62] utilizationEnergyMaintenance 103247.71760559
scalar OsgEarthNet.uav[62] utilizationEnergyCharge 202723.17041016
scalar OsgEarthNet.uav[62] utilizationEnergyOverdrawMission 0
scalar OsgEarthNet.uav[62] utilizationEnergyOverdrawMaintenance 0
scalar OsgEarthNet.uav[62] utilizationCountMissions 48
scalar OsgEarthNet.uav[62] utilizationCountManeuversMission 587
scalar OsgEarthNet.uav[62] utilizationCountManeuversMaintenance 96
scalar OsgEarthNet.uav[62] utilizationCountChargeState 48
scalar OsgEarthNet.uav[62] utilizationCountOverdrawnAfterMission 0
scalar OsgEarthNet.uav[62] utilizationCountIdleState 43
scalar OsgEarthNet.uav[62] utilizationFail 0
scalar OsgEarthNet.uav[62] simulationTime 259200
scalar OsgEarthNet.uav[63] utilizationSecMission 21284.319398798
scalar OsgEarthNet.uav[63] utilizationSecMaintenance 24449.484568003
scalar OsgEarthNet.uav[63] utilizationSecCharge 162214.1870332
scalar OsgEarthNet.uav[63] utilizationSecIdle 51252.008
scalar OsgEarthNet.uav[63] utilizationEnergyMission 103441.08063889
scalar OsgEarthNet.uav[63] utilizationEnergyMaintenance 111751.78352356
scalar OsgEarthNet.uav[63] utilizationEnergyCharge 212239.70483398
scalar OsgEarthNet.uav[63] utilizationEnergyOverdrawMission 0
scalar OsgEarthNet.uav[63] utilizationEnergyOverdrawMaintenance 0
scalar OsgEarthNet.uav[63] utilizationCountMissions 52
scalar OsgEarthNet.uav[63] utilizationCountManeuversMission 766
scalar OsgEarthNet.uav[63] utilizationCountManeuversMaintenance 104
scalar OsgEarthNet.uav[63] utilizationCountChargeState 52
scalar OsgEarthNet.uav[63] utilizationCountOverdrawnAfterMission 0
scalar OsgEarthNet.uav[63] utilizationCountIdleState 43
scalar OsgEarthNet.uav[63] utilizationFail 0
scalar OsgEarthNet.uav[63] simulationTime 259200
scalar OsgEarthNet.uav[64] utilizationSecMission 23654.925595685
scalar OsgEarthNet.uav[64] utilizationSecMaintenance 23560.998694152
scalar OsgEarthNet.uav[64] utilizationSecCharge 167442.07471016
scalar OsgEarthNet.uav[64] utilizationSecIdle 44542
scalar OsgEarthNet.uav[64] utilizationEnergyMission 112418.50535583
scalar OsgEarthNet.uav[64] utilizationEnergyMaintenance 108966.37720871
scalar OsgEarthNet.uav[64] utilizationEnergyCharge 220427.55297852
scalar OsgEarthNet.uav[64] utilizationEnergyOverdrawMission 0
scalar OsgEarthNet.uav[64] utilizationEnergyOverdrawMaintenance 0
scalar OsgEarthNet.uav[64] utilizationCountMissions 52
scalar OsgEarthNet.uav[64] utilizationCountManeuversMission 667
scalar OsgEarthNet.uav[64] utilizationCountManeuversMaintenance 104
scalar OsgEarthNet.uav[64] utilizationCountChargeState 52
scalar OsgEarthNet.uav[64] utilizationCountOverdrawnAfterMission 0
scalar OsgEarthNet.uav[64] utilizationCountIdleState 43
scalar OsgEarthNet.uav[64] utilizationFail 0
scalar OsgEarthNet.uav[64] simulationTime 259200
scalar OsgEarthNet.uav[65] utilizationSecMission 23706.995730717
scalar OsgEarthNet.uav[65] utilizationSecMaintenance 22849.053570633
scalar OsgEarthNet.uav[65] utilizationSecCharge 167560
scalar OsgEarthNet.uav[65] utilizationSecIdle 45083.94969865
scalar OsgEarthNet.uav[65] utilizationEnergyMission 113510.06293488
scalar OsgEarthNet.uav[65] utilizationEnergyMaintenance 105559.25761414
scalar OsgEarthNet.uav[65] utilizationEnergyCharge 219347.14501953
[...]
scalar OsgEarthNet.uav[81] utilizationCountManeuversMission 855
scalar OsgEarthNet.uav[81] utilizationCountManeuversMaintenance 122
scalar OsgEarthNet.uav[81] utilizationCountChargeState 61
scalar OsgEarthNet.uav[81] utilizationCountOverdrawnAfterMission 0
scalar OsgEarthNet.uav[81] utilizationCountIdleState 31
scalar OsgEarthNet.uav[81] utilizationFail 0
scalar OsgEarthNet.uav[81] simulationTime 259200
scalar OsgEarthNet.uav[82] utilizationSecMission 25500.70377507
scalar OsgEarthNet.uav[82] utilizationSecMaintenance 29416.234288227
scalar OsgEarthNet.uav[82] utilizationSecCharge 194781.0579367
scalar OsgEarthNet.uav[82] utilizationSecIdle 9502.003
scalar OsgEarthNet.uav[82] utilizationEnergyMission 122999.10203552
scalar OsgEarthNet.uav[82] utilizationEnergyMaintenance 137667.98561859
scalar OsgEarthNet.uav[82] utilizationEnergyCharge 261124.99804688
scalar OsgEarthNet.uav[82] utilizationEnergyOverdrawMission 0
scalar OsgEarthNet.uav[82] utilizationEnergyOverdrawMaintenance 0
scalar OsgEarthNet.uav[82] utilizationCountMissions 62
scalar OsgEarthNet.uav[82] utilizationCountManeuversMission 840
scalar OsgEarthNet.uav[82] utilizationCountManeuversMaintenance 124
scalar OsgEarthNet.uav[82] utilizationCountChargeState 62
scalar OsgEarthNet.uav[82] utilizationCountOverdrawnAfterMission 0
scalar OsgEarthNet.uav[82] utilizationCountIdleState 29
scalar OsgEarthNet.uav[82] utilizationFail 0
scalar OsgEarthNet.uav[82] simulationTime 259200
scalar OsgEarthNet.uav[83] utilizationSecMission 27335.127817858
scalar OsgEarthNet.uav[83] utilizationSecMaintenance 28783.721747453
scalar OsgEarthNet.uav[83] utilizationSecCharge 196739.14643469
scalar OsgEarthNet.uav[83] utilizationSecIdle 6342.003
scalar OsgEarthNet.uav[83] utilizationEnergyMission 130863.39172745
scalar OsgEarthNet.uav[83] utilizationEnergyMaintenance 135233.8270607
scalar OsgEarthNet.uav[83] utilizationEnergyCharge 265057.62329102
scalar OsgEarthNet.uav[83] utilizationEnergyOverdrawMission 0
scalar OsgEarthNet.uav[83] utilizationEnergyOverdrawMaintenance 0
scalar OsgEarthNet.uav[83] utilizationCountMissions 63
scalar OsgEarthNet.uav[83] utilizationCountManeuversMission 796
scalar OsgEarthNet.uav[83] utilizationCountManeuversMaintenance 126
scalar OsgEarthNet.uav[83] utilizationCountChargeState 63
scalar OsgEarthNet.uav[83] utilizationCountOverdrawnAfterMission 0
scalar OsgEarthNet.uav[83] utilizationCountIdleState 25
scalar OsgEarthNet.uav[83] utilizationFail 0
scalar OsgEarthNet.uav[83] simulationTime 259200
scalar OsgEarthNet.uav[84] utilizationSecMission 28914.608090707
scalar OsgEarthNet.uav[84] utilizationSecMaintenance 26374.245631043
scalar OsgEarthNet.uav[84] utilizationSecCharge 193212.61861617
scalar OsgEarthNet.uav[84] utilizationSecIdle 10698.526662077
scalar OsgEarthNet.uav[84] utilizationEnergyMission 141629.53578949
scalar OsgEarthNet.uav[84] utilizationEnergyMaintenance 121610.47516632
scalar OsgEarthNet.uav[84] utilizationEnergyCharge 258899.31738281
scalar OsgEarthNet.uav[84] utilizationEnergyOverdrawMission 0
scalar OsgEarthNet.uav[84] utilizationEnergyOverdrawMaintenance 31.940326690674
scalar OsgEarthNet.uav[84] utilizationCountMissions 61
scalar OsgEarthNet.uav[84] utilizationCountManeuversMission 820
scalar OsgEarthNet.uav[84] utilizationCountManeuversMaintenance 122
scalar OsgEarthNet.uav[84] utilizationCountChargeState 61
scalar OsgEarthNet.uav[84] utilizationCountOverdrawnAfterMission 1
scalar OsgEarthNet.uav[84] utilizationCountIdleState 32
scalar OsgEarthNet.uav[84] utilizationFail 0
scalar OsgEarthNet.uav[84] simulationTime 259200
scalar OsgEarthNet.uav[85] utilizationSecMission 27143.629222385
scalar OsgEarthNet.uav[85] utilizationSecMaintenance 28724.364777615
scalar OsgEarthNet.uav[85] utilizationSecCharge 194060
scalar OsgEarthNet.uav[85] utilizationSecIdle 9272.005
scalar OsgEarthNet.uav[85] utilizationEnergyMission 129744.02745696
scalar OsgEarthNet.uav[85] utilizationEnergyMaintenance 132304.13402176
scalar OsgEarthNet.uav[85] utilizationEnergyCharge 259702.63183594
scalar OsgEarthNet.uav[85] utilizationEnergyOverdrawMission 0
scalar OsgEarthNet.uav[85] utilizationEnergyOverdrawMaintenance 0
scalar OsgEarthNet.uav[85] utilizationCountMissions 62
scalar OsgEarthNet.uav[85] utilizationCountManeuversMission 863
scalar OsgEarthNet.uav[85] utilizationCountManeuversMaintenance 125
scalar OsgEarthNet.uav[85] utilizationCountChargeState 62
scalar OsgEarthNet.uav[85] utilizationCountOverdrawnAfterMission 0
scalar OsgEarthNet.uav[85] utilizationCountIdleState 28
scalar OsgEarthNet.uav[85] utilizationFail 0
scalar OsgEarthNet.uav[85] simulationTime 259200
scalar OsgEarthNet.uav[86] utilizationSecMission 26182.668705334
scalar OsgEarthNet.uav[86] utilizationSecMaintenance 30423.803452089
scalar OsgEarthNet.uav[86] utilizationSecCharge 196331.52084258
scalar OsgEarthNet.uav[86] utilizationSecIdle 6262.006
scalar OsgEarthNet.uav[86] utilizationEnergyMission 127968.97026062
scalar OsgEarthNet.uav[86] utilizationEnergyMaintenance 141515.61971283
scalar OsgEarthNet.uav[86] utilizationEnergyCharge 266729.50146484
scalar OsgEarthNet.uav[86] utilizationEnergyOverdrawMission 0
scalar OsgEarthNet.uav[86] utilizationEnergyOverdrawMaintenance 0
scalar OsgEarthNet.uav[86] utilizationCountMissions 63
scalar OsgEarthNet.uav[86] utilizationCountManeuversMission 763
scalar OsgEarthNet.uav[86] utilizationCountManeuversMaintenance 126
scalar OsgEarthNet.uav[86] utilizationCountChargeState 63
scalar OsgEarthNet.uav[86] utilizationCountOverdrawnAfterMission 0
scalar OsgEarthNet.uav[86] utilizationCountIdleState 18
scalar OsgEarthNet.uav[86] utilizationFail 0
scalar OsgEarthNet.uav[86] simulationTime 259200
scalar OsgEarthNet.uav[87] utilizationSecMission 27598.02376914
scalar OsgEarthNet.uav[87] utilizationSecMaintenance 28006.885509345
scalar OsgEarthNet.uav[87] utilizationSecCharge 194236.74883645
scalar OsgEarthNet.uav[87] utilizationSecIdle 9358.3408850607
scalar OsgEarthNet.uav[87] utilizationEnergyMission 132985.73713303
scalar OsgEarthNet.uav[87] utilizationEnergyMaintenance 130566.49605942
scalar OsgEarthNet.uav[87] utilizationEnergyCharge 263435.34667969
scalar OsgEarthNet.uav[87] utilizationEnergyOverdrawMission 0
scalar OsgEarthNet.uav[87] utilizationEnergyOverdrawMaintenance 216.64768981934
scalar OsgEarthNet.uav[87] utilizationCountMissions 62
scalar OsgEarthNet.uav[87] utilizationCountManeuversMission 804
scalar OsgEarthNet.uav[87] utilizationCountManeuversMaintenance 124
scalar OsgEarthNet.uav[87] utilizationCountChargeState 62
scalar OsgEarthNet.uav[87] utilizationCountOverdrawnAfterMission 1
scalar OsgEarthNet.uav[87] utilizationCountIdleState 24
scalar OsgEarthNet.uav[87] utilizationFail 0
scalar OsgEarthNet.uav[87] simulationTime 259200
scalar OsgEarthNet.uav[88] utilizationSecMission 27555.536330295
scalar OsgEarthNet.uav[88] utilizationSecMaintenance 29054.972941909
scalar OsgEarthNet.uav[88] utilizationSecCharge 195197.4817278
scalar OsgEarthNet.uav[88] utilizationSecIdle 7392.008
scalar OsgEarthNet.uav[88] utilizationEnergyMission 133852.80069351
scalar OsgEarthNet.uav[88] utilizationEnergyMaintenance 133977.01458359
scalar OsgEarthNet.uav[88] utilizationEnergyCharge 263640.13461304
scalar OsgEarthNet.uav[88] utilizationEnergyOverdrawMission 0
scalar OsgEarthNet.uav[88] utilizationEnergyOverdrawMaintenance 0
scalar OsgEarthNet.uav[88] utilizationCountMissions 63
scalar OsgEarthNet.uav[88] utilizationCountManeuversMission 880
scalar OsgEarthNet.uav[88] utilizationCountManeuversMaintenance 126
scalar OsgEarthNet.uav[88] utilizationCountChargeState 63
scalar OsgEarthNet.uav[88] utilizationCountOverdrawnAfterMission 0
scalar OsgEarthNet.uav[88] utilizationCountIdleState 22
scalar OsgEarthNet.uav[88] utilizationFail 0
scalar OsgEarthNet.uav[88] simulationTime 259200
scalar OsgEarthNet.uav[89] utilizationSecMission 26689.984909368
scalar OsgEarthNet.uav[89] utilizationSecMaintenance 29448.37778731
scalar OsgEarthNet.uav[89] utilizationSecCharge 195429.88673539
scalar OsgEarthNet.uav[89] utilizationSecIdle 7631.7495679317
scalar OsgEarthNet.uav[89] utilizationEnergyMission 129626.11154556
scalar OsgEarthNet.uav[89] utilizationEnergyMaintenance 136773.15382004
scalar OsgEarthNet.uav[89] utilizationEnergyCharge 266153.78442383
scalar OsgEarthNet.uav[89] utilizationEnergyOverdrawMission 0
scalar OsgEarthNet.uav[89] utilizationEnergyOverdrawMaintenance 0
scalar OsgEarthNet.uav[89] utilizationCountMissions 63
scalar OsgEarthNet.uav[89] utilizationCountManeuversMission 897
scalar OsgEarthNet.uav[89] utilizationCountManeuversMaintenance 126
scalar OsgEarthNet.uav[89] utilizationCountChargeState 63
scalar OsgEarthNet.uav[89] utilizationCountOverdrawnAfterMission 0
scalar OsgEarthNet.uav[89] utilizationCountIdleState 23
scalar OsgEarthNet.uav[89] utilizationFail 0
scalar OsgEarthNet.uav[89] simulationTime 259200
scalar OsgEarthNet.uav[90] utilizationSecMission 25668.470357183
scalar OsgEarthNet.uav[90] utilizationSecMaintenance 30290.081227234
scalar OsgEarthNet.uav[90] utilizationSecCharge 194400
scalar OsgEarthNet.uav[90] utilizationSecIdle 8841.4474155831
scalar OsgEarthNet.uav[90] utilizationEnergyMission 123317.10362857
scalar OsgEarthNet.uav[90] utilizationEnergyMaintenance 141448.68380737
scalar OsgEarthNet.uav[90] utilizationEnergyCharge 264657.00244141
scalar OsgEarthNet.uav[90] utilizationEnergyOverdrawMission 0
scalar OsgEarthNet.uav[90] utilizationEnergyOverdrawMaintenance 0
scalar OsgEarthNet.uav[90] utilizationCountMissions 62
scalar OsgEarthNet.uav[90] utilizationCountManeuversMission 751
scalar OsgEarthNet.uav[90] utilizationCountManeuversMaintenance 125
scalar OsgEarthNet.uav[90] utilizationCountChargeState 62
scalar OsgEarthNet.uav[90] utilizationCountOverdrawnAfterMission 0
scalar OsgEarthNet.uav[90] utilizationCountIdleState 20
scalar OsgEarthNet.uav[90] utilizationFail 0
scalar OsgEarthNet.uav[90] simulationTime 259200
scalar OsgEarthNet.uav[91] utilizationSecMission 28337.697396756
scalar OsgEarthNet.uav[91] utilizationSecMaintenance 27372.624343993
scalar OsgEarthNet.uav[91] utilizationSecCharge 194174.23117056
scalar OsgEarthNet.uav[91] utilizationSecIdle 9315.4460886909
scalar OsgEarthNet.uav[91] utilizationEnergyMission 135248.98470688
scalar OsgEarthNet.uav[91] utilizationEnergyMaintenance 127349.52529907
scalar OsgEarthNet.uav[91] utilizationEnergyCharge 262481.77905273
scalar OsgEarthNet.uav[91] utilizationEnergyOverdrawMission 0
scalar OsgEarthNet.uav[91] utilizationEnergyOverdrawMaintenance 0
scalar OsgEarthNet.uav[91] utilizationCountMissions 63
scalar OsgEarthNet.uav[91] utilizationCountManeuversMission 852
scalar OsgEarthNet.uav[91] utilizationCountManeuversMaintenance 126
scalar OsgEarthNet.uav[91] utilizationCountChargeState 63
scalar OsgEarthNet.uav[91] utilizationCountOverdrawnAfterMission 0
scalar OsgEarthNet.uav[91] utilizationCountIdleState 25
scalar OsgEarthNet.uav[91] utilizationFail 0
scalar OsgEarthNet.uav[91] simulationTime 259200
scalar OsgEarthNet.uav[92] utilizationSecMission 26592.857631107
scalar OsgEarthNet.uav[92] utilizationSecMaintenance 29494.188401754
scalar OsgEarthNet.uav[92] utilizationSecCharge 195580.94596714
scalar OsgEarthNet.uav[92] utilizationSecIdle 7532.007
scalar OsgEarthNet.uav[92] utilizationEnergyMission 128730.33830643
scalar OsgEarthNet.uav[92] utilizationEnergyMaintenance 137332.77456665
scalar OsgEarthNet.uav[92] utilizationEnergyCharge 265723.95556641
scalar OsgEarthNet.uav[92] utilizationEnergyOverdrawMission 0
scalar OsgEarthNet.uav[92] utilizationEnergyOverdrawMaintenance 29.675064086914
scalar OsgEarthNet.uav[92] utilizationCountMissions 63
scalar OsgEarthNet.uav[92] utilizationCountManeuversMission 801
scalar OsgEarthNet.uav[92] utilizationCountManeuversMaintenance 126
scalar OsgEarthNet.uav[92] utilizationCountChargeState 63
scalar OsgEarthNet.uav[92] utilizationCountOverdrawnAfterMission 1
scalar OsgEarthNet.uav[92] utilizationCountIdleState 15
scalar OsgEarthNet.uav[92] utilizationFail 0
scalar OsgEarthNet.uav[92] simulationTime 259200
scalar OsgEarthNet.uav[93] utilizationSecMission 28483.445920297
scalar OsgEarthNet.uav[93] utilizationSecMaintenance 28055.212291851
scalar OsgEarthNet.uav[93] utilizationSecCharge 196225.31917665
scalar OsgEarthNet.uav[93] utilizationSecIdle 6436.0216111988
scalar OsgEarthNet.uav[93] utilizationEnergyMission 136620.42733765
scalar OsgEarthNet.uav[93] utilizationEnergyMaintenance 130419.44816971
scalar OsgEarthNet.uav[93] utilizationEnergyCharge 264947.17260742
scalar OsgEarthNet.uav[93] utilizationEnergyOverdrawMission 0
scalar OsgEarthNet.uav[93] utilizationEnergyOverdrawMaintenance 0
scalar OsgEarthNet.uav[93] utilizationCountMissions 63
scalar OsgEarthNet.uav[93] utilizationCountManeuversMission 775
scalar OsgEarthNet.uav[93] utilizationCountManeuversMaintenance 126
scalar OsgEarthNet.uav[93] utilizationCountChargeState 63
scalar OsgEarthNet.uav[93] utilizationCountOverdrawnAfterMission 0
scalar OsgEarthNet.uav[93] utilizationCountIdleState 25
scalar OsgEarthNet.uav[93] utilizationFail 0
scalar OsgEarthNet.uav[93] simulationTime 259200
scalar OsgEarthNet.uav[94] utilizationSecMission 26701.532166717
scalar OsgEarthNet.uav[94] utilizationSecMaintenance 30084.995290218
scalar OsgEarthNet.uav[94] utilizationSecCharge 196993.09037781
scalar OsgEarthNet.uav[94] utilizationSecIdle 5420.3811652544
scalar OsgEarthNet.uav[94] utilizationEnergyMission 130617.25989914
scalar OsgEarthNet.uav[94] utilizationEnergyMaintenance 141109.31995392
scalar OsgEarthNet.uav[94] utilizationEnergyCharge 268596.8092041
scalar OsgEarthNet.uav[94] utilizationEnergyOverdrawMission 0
scalar OsgEarthNet.uav[94] utilizationEnergyOverdrawMaintenance 0
scalar OsgEarthNet.uav[94] utilizationCountMissions 65
scalar OsgEarthNet.uav[94] utilizationCountManeuversMission 900
scalar OsgEarthNet.uav[94] utilizationCountManeuversMaintenance 130
scalar OsgEarthNet.uav[94] utilizationCountChargeState 65
scalar OsgEarthNet.uav[94] utilizationCountOverdrawnAfterMission 0
scalar OsgEarthNet.uav[94] utilizationCountIdleState 20
scalar OsgEarthNet.uav[94] utilizationFail 0
scalar OsgEarthNet.uav[94] simulationTime 259200
scalar OsgEarthNet.uav[95] utilizationSecMission 26055.832924193
scalar OsgEarthNet.uav[95] utilizationSecMaintenance 30446.64025656
scalar OsgEarthNet.uav[95] utilizationSecCharge 198075.52481925
scalar OsgEarthNet.uav[95] utilizationSecIdle 4622.001
scalar OsgEarthNet.uav[95] utilizationEnergyMission 127163.00505447
scalar OsgEarthNet.uav[95] utilizationEnergyMaintenance 142837.69003677
scalar OsgEarthNet.uav[95] utilizationEnergyCharge 270507.54272461
scalar OsgEarthNet.uav[95] utilizationEnergyOverdrawMission 0
scalar OsgEarthNet.uav[95] utilizationEnergyOverdrawMaintenance 0
scalar OsgEarthNet.uav[95] utilizationCountMissions 64
scalar OsgEarthNet.uav[95] utilizationCountManeuversMission 838
scalar OsgEarthNet.uav[95] utilizationCountManeuversMaintenance 128
scalar OsgEarthNet.uav[95] utilizationCountChargeState 64
scalar OsgEarthNet.uav[95] utilizationCountOverdrawnAfterMission 0
scalar OsgEarthNet.uav[95] utilizationCountIdleState 19
scalar OsgEarthNet.uav[95] utilizationFail 0
scalar OsgEarthNet.uav[95] simulationTime 259200
scalar OsgEarthNet.uav[96] utilizationSecMission 26326.987243794
scalar OsgEarthNet.uav[96] utilizationSecMaintenance 30012.059500541
scalar OsgEarthNet.uav[96] utilizationSecCharge 195210
scalar OsgEarthNet.uav[96] utilizationSecIdle 7650.9522556647
scalar OsgEarthNet.uav[96] utilizationEnergyMission 129259.70275822
scalar OsgEarthNet.uav[96] utilizationEnergyMaintenance 139087.08996582
scalar OsgEarthNet.uav[96] utilizationEnergyCharge 265558.1574707
scalar OsgEarthNet.uav[96] utilizationEnergyOverdrawMission 0
scalar OsgEarthNet.uav[96] utilizationEnergyOverdrawMaintenance 0
scalar OsgEarthNet.uav[96] utilizationCountMissions 63
scalar OsgEarthNet.uav[96] utilizationCountManeuversMission 873
scalar OsgEarthNet.uav[96] utilizationCountManeuversMaintenance 127
scalar OsgEarthNet.uav[96] utilizationCountChargeState 63
scalar OsgEarthNet.uav[96] utilizationCountOverdrawnAfterMission 0
scalar OsgEarthNet.uav[96] utilizationCountIdleState 16
scalar OsgEarthNet.uav[96] utilizationFail 0
scalar OsgEarthNet.uav[96] simulationTime 259200
scalar OsgEarthNet.uav[97] utilizationSecMission 26283.236050728
scalar OsgEarthNet.uav[97] utilizationSecMaintenance 30548.989990785
scalar OsgEarthNet.uav[97] utilizationSecCharge 196723.43477514
scalar OsgEarthNet.uav[97] utilizationSecIdle 5644.3381833506
scalar OsgEarthNet.uav[97] utilizationEnergyMission 126172.15206528
scalar OsgEarthNet.uav[97] utilizationEnergyMaintenance 142497.51184463
scalar OsgEarthNet.uav[97] utilizationEnergyCharge 268333.9465332
scalar OsgEarthNet.uav[97] utilizationEnergyOverdrawMission 0
scalar OsgEarthNet.uav[97] utilizationEnergyOverdrawMaintenance 0
scalar OsgEarthNet.uav[97] utilizationCountMissions 64
scalar OsgEarthNet.uav[97] utilizationCountManeuversMission 798
scalar OsgEarthNet.uav[97] utilizationCountManeuversMaintenance 128
scalar OsgEarthNet.uav[97] utilizationCountChargeState 64
scalar OsgEarthNet.uav[97] utilizationCountOverdrawnAfterMission 0
scalar OsgEarthNet.uav[97] utilizationCountIdleState 10
scalar OsgEarthNet.uav[97] utilizationFail 0
scalar OsgEarthNet.uav[97] simulationTime 259200
scalar OsgEarthNet.uav[98] utilizationSecMission 28040.463589468
scalar OsgEarthNet.uav[98] utilizationSecMaintenance 29243.740254489
scalar OsgEarthNet.uav[98] utilizationSecCharge 197983.79515604
scalar OsgEarthNet.uav[98] utilizationSecIdle 3932
scalar OsgEarthNet.uav[98] utilizationEnergyMission 134295.18385696
scalar OsgEarthNet.uav[98] utilizationEnergyMaintenance 135539.24570084
scalar OsgEarthNet.uav[98] utilizationEnergyCharge 267675.72924805
scalar OsgEarthNet.uav[98] utilizationEnergyOverdrawMission 0
scalar OsgEarthNet.uav[98] utilizationEnergyOverdrawMaintenance 0
scalar OsgEarthNet.uav[98] utilizationCountMissions 64
scalar OsgEarthNet.uav[98] utilizationCountManeuversMission 860
scalar OsgEarthNet.uav[98] utilizationCountManeuversMaintenance 128
scalar OsgEarthNet.uav[98] utilizationCountChargeState 64
scalar OsgEarthNet.uav[98] utilizationCountOverdrawnAfterMission 0
scalar OsgEarthNet.uav[98] utilizationCountIdleState 18
scalar OsgEarthNet.uav[98] utilizationFail 0
scalar OsgEarthNet.uav[98] simulationTime 259200
scalar OsgEarthNet.uav[99] utilizationSecMission 26843.207728728
scalar OsgEarthNet.uav[99] utilizationSecMaintenance 30377.242930176
scalar OsgEarthNet.uav[99] utilizationSecCharge 194513.11707987
scalar OsgEarthNet.uav[99] utilizationSecIdle 7466.4312612234
scalar OsgEarthNet.uav[99] utilizationEnergyMission 129335.80804443
scalar OsgEarthNet.uav[99] utilizationEnergyMaintenance 142773.38874435
scalar OsgEarthNet.uav[99] utilizationEnergyCharge 266287.24679565
scalar OsgEarthNet.uav[99] utilizationEnergyOverdrawMission 0
scalar OsgEarthNet.uav[99] utilizationEnergyOverdrawMaintenance 389.38385009766
scalar OsgEarthNet.uav[99] utilizationCountMissions 63
scalar OsgEarthNet.uav[99] utilizationCountManeuversMission 734
scalar OsgEarthNet.uav[99] utilizationCountManeuversMaintenance 126
scalar OsgEarthNet.uav[99] utilizationCountChargeState 63
scalar OsgEarthNet.uav[99] utilizationCountOverdrawnAfterMission 2
scalar OsgEarthNet.uav[99] utilizationCountIdleState 16
scalar OsgEarthNet.uav[99] utilizationFail 0
scalar OsgEarthNet.uav[99] simulationTime 259200
scalar OsgEarthNet.cs[0] usedPower 5727895.9361002
scalar OsgEarthNet.cs[0] chargedPower 5727895.9361002
scalar OsgEarthNet.cs[0] chargedMobileNodes 1018
scalar OsgEarthNet.cs[0] reservations 1372
scalar OsgEarthNet.cs[1] usedPower 5683094.2022141
scalar OsgEarthNet.cs[1] chargedPower 5683094.2022141
scalar OsgEarthNet.cs[1] chargedMobileNodes 988
scalar OsgEarthNet.cs[1] reservations 1324
scalar OsgEarthNet.cs[2] usedPower 10159980.666998
scalar OsgEarthNet.cs[2] chargedPower 10159980.666998
scalar OsgEarthNet.cs[2] chargedMobileNodes 1906
scalar OsgEarthNet.cs[2] reservations 2433

