version 2
run Szenario_Hotel_Gabelbach-117-20180708-02:29:20-40980
attr configname Szenario_Hotel_Gabelbach
attr datetime 20180708-02:29:20
attr experiment Szenario_Hotel_Gabelbach
attr inifile omnetpp.ini
attr iterationvars "$quant=0.99, $replM=0"
attr iterationvarsf quant=0.99,replM=0-
attr measurement "$quant=0.99, $replM=0"
attr network OsgEarthNet
attr processid 40980
attr repetition 21
attr replication #21
attr resultdir results
attr runnumber 117
attr seedset 117
itervar quant 0.99
itervar replM 0
param *.osgEarthScene.scene "\"Szenario_Hotel_Gabelbach.earth\""
param *.playgroundLatitude 50.6830269
param *.playgroundLongitude 10.8538055
param *.playgroundWidth 3500m
param *.playgroundHeight 3500m
param *.numCSs 3
param *.numUAVs 100
param *.cs[0].posX 3537m
param *.cs[0].posY 965m
param *.cs[0].posZ 538m
param *.cs[1].posX 312m
param *.cs[1].posY 1262m
param *.cs[1].posZ 539m
param *.cs[2].posX 2185m
param *.cs[2].posY 3026m
param *.cs[2].posZ 777m
param *.uav[*].predictionQuantile 0.99
param *.uav[*].replacementMethod 0
param *.*.timeStep 10s
param *.uav[*].commandPreviewCommandCount 20
param *.missionControl.missionFiles "\"missions\\\\Szenario_WB_Hotel_Gabelbach_Mission_Hotel.waypoints,missions\\\\Szenario_WB_Hotel_Gabelbach_Mission_Kickelhahn.waypoints,missions\\\\Szenario_WB_Hotel_Gabelbach_Mission_Ilmenau_Sportplatz.waypoints,missions\\\\Szenario_WB_Hotel_Gabelbach_Mission_Manebach_Mitte.waypoints,missions\\\\Szenario_WB_Hotel_Gabelbach_Mission_Manebach_Sued.waypoints,missions\\\\Szenario_WB_Hotel_Gabelbach_Hover_HoheSchlaufe.waypoints,missions\\\\Szenario_WB_Hotel_Gabelbach_Hover_Kickelhahn.waypoints,missions\\\\Szenario_WB_Hotel_Gabelbach_Hover_Gabelbachskopf.waypoints,missions\\\\Szenario_WB_Hotel_Gabelbach_Hover_Dachskopf.waypoints\""
param *.uav[0].startX 3537m
param *.uav[0].startY 965m
param *.uav[0].startZ 539m
param *.uav[1].startX 312m
param *.uav[1].startY 1262m
param *.uav[1].startZ 540m
param *.uav[2].startX 2185m
param *.uav[2].startY 3026m
param *.uav[2].startZ 778m
param *.uav[3].startX 3537m
param *.uav[3].startY 965m
param *.uav[3].startZ 539m
param *.uav[4].startX 312m
param *.uav[4].startY 1262m
param *.uav[4].startZ 540m
param *.uav[5].startX 2185m
param *.uav[5].startY 3026m
param *.uav[5].startZ 778m
param *.uav[6].startX 3537m
param *.uav[6].startY 965m
param *.uav[6].startZ 539m
param *.uav[7].startX 312m
param *.uav[7].startY 1262m
param *.uav[7].startZ 540m
param *.uav[8].startX 2185m
param *.uav[8].startY 3026m
param *.uav[8].startZ 778m
param *.uav[9].startX 3537m
param *.uav[9].startY 965m
param *.uav[9].startZ 539m
param *.uav[10].startX 3537m
param *.uav[10].startY 965m
param *.uav[10].startZ 539m
param *.uav[11].startX 312m
param *.uav[11].startY 1262m
param *.uav[11].startZ 540m
param *.uav[12].startX 2185m
param *.uav[12].startY 3026m
param *.uav[12].startZ 778m
param *.uav[13].startX 3537m
param *.uav[13].startY 965m
param *.uav[13].startZ 539m
param *.uav[14].startX 312m
param *.uav[14].startY 1262m
param *.uav[14].startZ 540m
param *.uav[15].startX 2185m
param *.uav[15].startY 3026m
param *.uav[15].startZ 778m
param *.uav[16].startX 3537m
param *.uav[16].startY 965m
param *.uav[16].startZ 539m
param *.uav[17].startX 312m
param *.uav[17].startY 1262m
param *.uav[17].startZ 540m
param *.uav[18].startX 2185m
param *.uav[18].startY 3026m
param *.uav[18].startZ 778m
param *.uav[19].startX 3537m
param *.uav[19].startY 965m
param *.uav[19].startZ 539m
param *.uav[20].startX 3537m
param *.uav[20].startY 965m
param *.uav[20].startZ 539m
param *.uav[21].startX 312m
param *.uav[21].startY 1262m
param *.uav[21].startZ 540m
param *.uav[22].startX 2185m
param *.uav[22].startY 3026m
param *.uav[22].startZ 778m
param *.uav[23].startX 3537m
param *.uav[23].startY 965m
param *.uav[23].startZ 539m
param *.uav[24].startX 312m
param *.uav[24].startY 1262m
param *.uav[24].startZ 540m
param *.uav[25].startX 2185m
param *.uav[25].startY 3026m
param *.uav[25].startZ 778m
param *.uav[26].startX 3537m
param *.uav[26].startY 965m
param *.uav[26].startZ 539m
param *.uav[27].startX 312m
param *.uav[27].startY 1262m
param *.uav[27].startZ 540m
param *.uav[28].startX 2185m
param *.uav[28].startY 3026m
param *.uav[28].startZ 778m
param *.uav[29].startX 3537m
param *.uav[29].startY 965m
param *.uav[29].startZ 539m
param *.uav[30].startX 3537m
param *.uav[30].startY 965m
param *.uav[30].startZ 539m
param *.uav[31].startX 312m
param *.uav[31].startY 1262m
param *.uav[31].startZ 540m
param *.uav[32].startX 2185m
param *.uav[32].startY 3026m
param *.uav[32].startZ 778m
param *.uav[33].startX 3537m
param *.uav[33].startY 965m
param *.uav[33].startZ 539m
param *.uav[34].startX 312m
param *.uav[34].startY 1262m
param *.uav[34].startZ 540m
param *.uav[35].startX 2185m
param *.uav[35].startY 3026m
param *.uav[35].startZ 778m
param *.uav[36].startX 3537m
param *.uav[36].startY 965m
param *.uav[36].startZ 539m
param *.uav[37].startX 312m
param *.uav[37].startY 1262m
param *.uav[37].startZ 540m
param *.uav[38].startX 2185m
param *.uav[38].startY 3026m
param *.uav[38].startZ 778m
param *.uav[39].startX 3537m
param *.uav[39].startY 965m
param *.uav[39].startZ 539m
param *.uav[40].startX 3537m
param *.uav[40].startY 965m
param *.uav[40].startZ 539m
param *.uav[41].startX 312m
param *.uav[41].startY 1262m
param *.uav[41].startZ 540m
param *.uav[42].startX 2185m
param *.uav[42].startY 3026m
param *.uav[42].startZ 778m
param *.uav[43].startX 3537m
param *.uav[43].startY 965m
param *.uav[43].startZ 539m
param *.uav[44].startX 312m
param *.uav[44].startY 1262m
param *.uav[44].startZ 540m
param *.uav[45].startX 2185m
param *.uav[45].startY 3026m
param *.uav[45].startZ 778m
param *.uav[46].startX 3537m
param *.uav[46].startY 965m
param *.uav[46].startZ 539m
param *.uav[47].startX 312m
param *.uav[47].startY 1262m
param *.uav[47].startZ 540m
param *.uav[48].startX 2185m
param *.uav[48].startY 3026m
param *.uav[48].startZ 778m
param *.uav[49].startX 3537m
param *.uav[49].startY 965m
param *.uav[49].startZ 539m
param *.uav[50].startX 3537m
param *.uav[50].startY 965m
param *.uav[50].startZ 539m
param *.uav[51].startX 312m
param *.uav[51].startY 1262m
param *.uav[51].startZ 540m
param *.uav[52].startX 2185m
param *.uav[52].startY 3026m
param *.uav[52].startZ 778m
param *.uav[53].startX 3537m
param *.uav[53].startY 965m
param *.uav[53].startZ 539m
param *.uav[54].startX 312m
param *.uav[54].startY 1262m
param *.uav[54].startZ 540m
param *.uav[55].startX 2185m
param *.uav[55].startY 3026m
param *.uav[55].startZ 778m
param *.uav[56].startX 3537m
param *.uav[56].startY 965m
param *.uav[56].startZ 539m
param *.uav[57].startX 312m
param *.uav[57].startY 1262m
param *.uav[57].startZ 540m
param *.uav[58].startX 2185m
param *.uav[58].startY 3026m
param *.uav[58].startZ 778m
param *.uav[59].startX 3537m
param *.uav[59].startY 965m
param *.uav[59].startZ 539m
param *.uav[60].startX 3537m
param *.uav[60].startY 965m
param *.uav[60].startZ 539m
param *.uav[61].startX 312m
param *.uav[61].startY 1262m
param *.uav[61].startZ 540m
param *.uav[62].startX 2185m
param *.uav[62].startY 3026m
param *.uav[62].startZ 778m
param *.uav[63].startX 3537m
param *.uav[63].startY 965m
param *.uav[63].startZ 539m
param *.uav[64].startX 312m
param *.uav[64].startY 1262m
param *.uav[64].startZ 540m
param *.uav[65].startX 2185m
param *.uav[65].startY 3026m
param *.uav[65].startZ 778m
param *.uav[66].startX 3537m
param *.uav[66].startY 965m
param *.uav[66].startZ 539m
param *.uav[67].startX 312m
param *.uav[67].startY 1262m
param *.uav[67].startZ 540m
param *.uav[68].startX 2185m
param *.uav[68].startY 3026m
param *.uav[68].startZ 778m
param *.uav[69].startX 3537m
param *.uav[69].startY 965m
param *.uav[69].startZ 539m
param *.uav[70].startX 3537m
param *.uav[70].startY 965m
param *.uav[70].startZ 539m
param *.uav[71].startX 312m
param *.uav[71].startY 1262m
param *.uav[71].startZ 540m
param *.uav[72].startX 2185m
param *.uav[72].startY 3026m
param *.uav[72].startZ 778m
param *.uav[73].startX 3537m
param *.uav[73].startY 965m
param *.uav[73].startZ 539m
param *.uav[74].startX 312m
param *.uav[74].startY 1262m
param *.uav[74].startZ 540m
param *.uav[75].startX 2185m
param *.uav[75].startY 3026m
param *.uav[75].startZ 778m
param *.uav[76].startX 3537m
param *.uav[76].startY 965m
param *.uav[76].startZ 539m
param *.uav[77].startX 312m
param *.uav[77].startY 1262m
param *.uav[77].startZ 540m
param *.uav[78].startX 2185m
param *.uav[78].startY 3026m
param *.uav[78].startZ 778m
param *.uav[79].startX 3537m
param *.uav[79].startY 965m
param *.uav[79].startZ 539m
param *.uav[80].startX 3537m
param *.uav[80].startY 965m
param *.uav[80].startZ 539m
param *.uav[81].startX 312m
param *.uav[81].startY 1262m
param *.uav[81].startZ 540m
param *.uav[82].startX 2185m
param *.uav[82].startY 3026m
param *.uav[82].startZ 778m
param *.uav[83].startX 3537m
param *.uav[83].startY 965m
param *.uav[83].startZ 539m
param *.uav[84].startX 312m
param *.uav[84].startY 1262m
param *.uav[84].startZ 540m
param *.uav[85].startX 2185m
param *.uav[85].startY 3026m
param *.uav[85].startZ 778m
param *.uav[86].startX 3537m
param *.uav[86].startY 965m
param *.uav[86].startZ 539m
param *.uav[87].startX 312m
param *.uav[87].startY 1262m
param *.uav[87].startZ 540m
param *.uav[88].startX 2185m
param *.uav[88].startY 3026m
param *.uav[88].startZ 778m
param *.uav[89].startX 3537m
param *.uav[89].startY 965m
param *.uav[89].startZ 539m
param *.uav[90].startX 3537m
param *.uav[90].startY 965m
param *.uav[90].startZ 539m
param *.uav[91].startX 312m
param *.uav[91].startY 1262m
param *.uav[91].startZ 540m
param *.uav[92].startX 2185m
param *.uav[92].startY 3026m
param *.uav[92].startZ 778m
param *.uav[93].startX 3537m
param *.uav[93].startY 965m
param *.uav[93].startZ 539m
param *.uav[94].startX 312m
param *.uav[94].startY 1262m
param *.uav[94].startZ 540m
param *.uav[95].startX 2185m
param *.uav[95].startY 3026m
param *.uav[95].startZ 778m
param *.uav[96].startX 3537m
param *.uav[96].startY 965m
param *.uav[96].startZ 539m
param *.uav[97].startX 312m
param *.uav[97].startY 1262m
param *.uav[97].startZ 540m
param *.uav[98].startX 2185m
param *.uav[98].startY 3026m
param *.uav[98].startZ 778m
param *.uav[99].startX 3537m
param *.uav[99].startY 965m
param *.uav[99].startZ 539m
param *.osgEarthScene.scene "\"boston.earth\""
param *.playgroundLatitude 42.3558
param *.playgroundLongitude -71.0677
param *.playgroundWidth 400m
param *.playgroundHeight 200m
param *.channelController.connectionColor "\"#0000FF40\""
param *.channelController.showConnections false
param *.uav[*].modelURL "\"quadrocopter.small.obj.15.scale.0,0,90.rot\""
param *.uav[*].labelColor "\"#FF7C00CC\""
param *.uav[*].label2Color "\"#FF7C00EE\""
param *.uav[*].batteryCapacity 5200mAh
param *.uav[*].batteryRemaining uav[index].batteryCapacity
param *.uav[*].predictionQuantile 0.95
param *.uav[*].replacementMethod 2
param *.uav[*].weightedSumWeight 0.5
param *.cs[*].modelURL "\"chargingstation_v1.osgt.1.scale.0,0,0.rot.0,0,-15e-1.trans\""
param *.cs[*].spotsWaiting 999
param *.cs[*].spotsCharging 999
param *.cs[*].chargeEffectivenessPercentage 100
param *.cs[*].nonLinearPhaseStartPercentage 85
param *.cs[*].chargeCurrent 6.0A
param *.cs[*].prioritizeFastCharge true
param *.missionControl.replacementSearchMethod 0
param *.*.timeStep 9s

scalar OsgEarthNet.uav[0] utilizationSecMission 24683.807187832
scalar OsgEarthNet.uav[0] utilizationSecMaintenance 26164.188812168
scalar OsgEarthNet.uav[0] utilizationSecCharge 182500
scalar OsgEarthNet.uav[0] utilizationSecIdle 25852.003
scalar OsgEarthNet.uav[0] utilizationEnergyMission 118227.67227976
scalar OsgEarthNet.uav[0] utilizationEnergyMaintenance 122743.85361099
scalar OsgEarthNet.uav[0] utilizationEnergyCharge 238323.55175781
scalar OsgEarthNet.uav[0] utilizationEnergyOverdrawMission 0
scalar OsgEarthNet.uav[0] utilizationEnergyOverdrawMaintenance 0
scalar OsgEarthNet.uav[0] utilizationCountMissions 56
scalar OsgEarthNet.uav[0] utilizationCountManeuversMission 731
scalar OsgEarthNet.uav[0] utilizationCountManeuversMaintenance 113
scalar OsgEarthNet.uav[0] utilizationCountChargeState 56
scalar OsgEarthNet.uav[0] utilizationCountOverdrawnAfterMission 0
scalar OsgEarthNet.uav[0] utilizationCountIdleState 57
scalar OsgEarthNet.uav[0] utilizationFail 0
scalar OsgEarthNet.uav[0] simulationTime 259200
scalar OsgEarthNet.uav[1] utilizationSecMission 26134.251888978
scalar OsgEarthNet.uav[1] utilizationSecMaintenance 23571.141520845
scalar OsgEarthNet.uav[1] utilizationSecCharge 180442.60259018
scalar OsgEarthNet.uav[1] utilizationSecIdle 29052.003
scalar OsgEarthNet.uav[1] utilizationEnergyMission 123705.98341751
scalar OsgEarthNet.uav[1] utilizationEnergyMaintenance 110174.23320007
scalar OsgEarthNet.uav[1] utilizationEnergyCharge 237212.30761719
scalar OsgEarthNet.uav[1] utilizationEnergyOverdrawMission 0
scalar OsgEarthNet.uav[1] utilizationEnergyOverdrawMaintenance 0
scalar OsgEarthNet.uav[1] utilizationCountMissions 55
scalar OsgEarthNet.uav[1] utilizationCountManeuversMission 763
scalar OsgEarthNet.uav[1] utilizationCountManeuversMaintenance 110
scalar OsgEarthNet.uav[1] utilizationCountChargeState 55
scalar OsgEarthNet.uav[1] utilizationCountOverdrawnAfterMission 0
scalar OsgEarthNet.uav[1] utilizationCountIdleState 55
scalar OsgEarthNet.uav[1] utilizationFail 0
scalar OsgEarthNet.uav[1] simulationTime 259200
scalar OsgEarthNet.uav[2] utilizationSecMission 22309.682904179
scalar OsgEarthNet.uav[2] utilizationSecMaintenance 21304.058766193
scalar OsgEarthNet.uav[2] utilizationSecCharge 161340
scalar OsgEarthNet.uav[2] utilizationSecIdle 54246.257329628
scalar OsgEarthNet.uav[2] utilizationEnergyMission 108182.60341263
scalar OsgEarthNet.uav[2] utilizationEnergyMaintenance 100887.52668381
scalar OsgEarthNet.uav[2] utilizationEnergyCharge 209665.20483398
scalar OsgEarthNet.uav[2] utilizationEnergyOverdrawMission 0
scalar OsgEarthNet.uav[2] utilizationEnergyOverdrawMaintenance 0
scalar OsgEarthNet.uav[2] utilizationCountMissions 50
scalar OsgEarthNet.uav[2] utilizationCountManeuversMission 709
scalar OsgEarthNet.uav[2] utilizationCountManeuversMaintenance 100
scalar OsgEarthNet.uav[2] utilizationCountChargeState 50
scalar OsgEarthNet.uav[2] utilizationCountOverdrawnAfterMission 0
scalar OsgEarthNet.uav[2] utilizationCountIdleState 51
scalar OsgEarthNet.uav[2] utilizationFail 0
scalar OsgEarthNet.uav[2] simulationTime 259200
scalar OsgEarthNet.uav[3] utilizationSecMission 15750.25747845
scalar OsgEarthNet.uav[3] utilizationSecMaintenance 13231.73066217
scalar OsgEarthNet.uav[3] utilizationSecCharge 104720
scalar OsgEarthNet.uav[3] utilizationSecIdle 125498.01085938
scalar OsgEarthNet.uav[3] utilizationEnergyMission 76887.656242371
scalar OsgEarthNet.uav[3] utilizationEnergyMaintenance 61522.441833496
scalar OsgEarthNet.uav[3] utilizationEnergyCharge 137147.87036133
scalar OsgEarthNet.uav[3] utilizationEnergyOverdrawMission 0
scalar OsgEarthNet.uav[3] utilizationEnergyOverdrawMaintenance 0
scalar OsgEarthNet.uav[3] utilizationCountMissions 32
scalar OsgEarthNet.uav[3] utilizationCountManeuversMission 489
scalar OsgEarthNet.uav[3] utilizationCountManeuversMaintenance 64
scalar OsgEarthNet.uav[3] utilizationCountChargeState 32
scalar OsgEarthNet.uav[3] utilizationCountOverdrawnAfterMission 0
scalar OsgEarthNet.uav[3] utilizationCountIdleState 33
scalar OsgEarthNet.uav[3] utilizationFail 0
scalar OsgEarthNet.uav[3] simulationTime 259200
scalar OsgEarthNet.uav[4] utilizationSecMission 27315.600405319
scalar OsgEarthNet.uav[4] utilizationSecMaintenance 23306.071215349
scalar OsgEarthNet.uav[4] utilizationSecCharge 181310
scalar OsgEarthNet.uav[4] utilizationSecIdle 27268.327379333
scalar OsgEarthNet.uav[4] utilizationEnergyMission 130711.80887222
scalar OsgEarthNet.uav[4] utilizationEnergyMaintenance 108362.83474242
scalar OsgEarthNet.uav[4] utilizationEnergyCharge 237619.50268555
scalar OsgEarthNet.uav[4] utilizationEnergyOverdrawMission 0
scalar OsgEarthNet.uav[4] utilizationEnergyOverdrawMaintenance 0
scalar OsgEarthNet.uav[4] utilizationCountMissions 55
scalar OsgEarthNet.uav[4] utilizationCountManeuversMission 767
scalar OsgEarthNet.uav[4] utilizationCountManeuversMaintenance 111
scalar OsgEarthNet.uav[4] utilizationCountChargeState 55
scalar OsgEarthNet.uav[4] utilizationCountOverdrawnAfterMission 0
scalar OsgEarthNet.uav[4] utilizationCountIdleState 56
scalar OsgEarthNet.uav[4] utilizationFail 0
scalar OsgEarthNet.uav[4] simulationTime 259200
scalar OsgEarthNet.uav[5] utilizationSecMission 23555.1079137
scalar OsgEarthNet.uav[5] utilizationSecMaintenance 23112.8880863
scalar OsgEarthNet.uav[5] utilizationSecCharge 168830
scalar OsgEarthNet.uav[5] utilizationSecIdle 43702.003
scalar OsgEarthNet.uav[5] utilizationEnergyMission 113871.63744856
scalar OsgEarthNet.uav[5] utilizationEnergyMaintenance 106110.47267914
scalar OsgEarthNet.uav[5] utilizationEnergyCharge 217997.02856445
scalar OsgEarthNet.uav[5] utilizationEnergyOverdrawMission 0
scalar OsgEarthNet.uav[5] utilizationEnergyOverdrawMaintenance 0
scalar OsgEarthNet.uav[5] utilizationCountMissions 53
scalar OsgEarthNet.uav[5] utilizationCountManeuversMission 745
scalar OsgEarthNet.uav[5] utilizationCountManeuversMaintenance 107
scalar OsgEarthNet.uav[5] utilizationCountChargeState 53
scalar OsgEarthNet.uav[5] utilizationCountOverdrawnAfterMission 0
scalar OsgEarthNet.uav[5] utilizationCountIdleState 54
scalar OsgEarthNet.uav[5] utilizationFail 0
scalar OsgEarthNet.uav[5] simulationTime 259200
scalar OsgEarthNet.uav[6] utilizationSecMission 16391.795896375
scalar OsgEarthNet.uav[6] utilizationSecMaintenance 16916.190103625
scalar OsgEarthNet.uav[6] utilizationSecCharge 120350
scalar OsgEarthNet.uav[6] utilizationSecIdle 105542.013
scalar OsgEarthNet.uav[6] utilizationEnergyMission 79708.466156006
scalar OsgEarthNet.uav[6] utilizationEnergyMaintenance 79350.278238054
scalar OsgEarthNet.uav[6] utilizationEnergyCharge 156942.47436523
scalar OsgEarthNet.uav[6] utilizationEnergyOverdrawMission 0
scalar OsgEarthNet.uav[6] utilizationEnergyOverdrawMaintenance 0
scalar OsgEarthNet.uav[6] utilizationCountMissions 37
scalar OsgEarthNet.uav[6] utilizationCountManeuversMission 520
scalar OsgEarthNet.uav[6] utilizationCountManeuversMaintenance 75
scalar OsgEarthNet.uav[6] utilizationCountChargeState 37
scalar OsgEarthNet.uav[6] utilizationCountOverdrawnAfterMission 0
scalar OsgEarthNet.uav[6] utilizationCountIdleState 38
scalar OsgEarthNet.uav[6] utilizationFail 0
scalar OsgEarthNet.uav[6] simulationTime 259200
scalar OsgEarthNet.uav[7] utilizationSecMission 23248.290185533
scalar OsgEarthNet.uav[7] utilizationSecMaintenance 23789.703814467
scalar OsgEarthNet.uav[7] utilizationSecCharge 167840
scalar OsgEarthNet.uav[7] utilizationSecIdle 44322.005
scalar OsgEarthNet.uav[7] utilizationEnergyMission 112190.5975965
scalar OsgEarthNet.uav[7] utilizationEnergyMaintenance 110906.65873718
scalar OsgEarthNet.uav[7] utilizationEnergyCharge 220032.38696289
scalar OsgEarthNet.uav[7] utilizationEnergyOverdrawMission 0
scalar OsgEarthNet.uav[7] utilizationEnergyOverdrawMaintenance 19.65983581543
scalar OsgEarthNet.uav[7] utilizationCountMissions 51
scalar OsgEarthNet.uav[7] utilizationCountManeuversMission 697
scalar OsgEarthNet.uav[7] utilizationCountManeuversMaintenance 103
scalar OsgEarthNet.uav[7] utilizationCountChargeState 51
scalar OsgEarthNet.uav[7] utilizationCountOverdrawnAfterMission 1
scalar OsgEarthNet.uav[7] utilizationCountIdleState 52
scalar OsgEarthNet.uav[7] utilizationFail 0
scalar OsgEarthNet.uav[7] simulationTime 259200
scalar OsgEarthNet.uav[8] utilizationSecMission 21447.929898221
scalar OsgEarthNet.uav[8] utilizationSecMaintenance 22339.303652124
scalar OsgEarthNet.uav[8] utilizationSecCharge 157430.75944965
scalar OsgEarthNet.uav[8] utilizationSecIdle 57982.006
scalar OsgEarthNet.uav[8] utilizationEnergyMission 105524.4454422
scalar OsgEarthNet.uav[8] utilizationEnergyMaintenance 103423.87197494
scalar OsgEarthNet.uav[8] utilizationEnergyCharge 205450.28564453
scalar OsgEarthNet.uav[8] utilizationEnergyOverdrawMission 0
scalar OsgEarthNet.uav[8] utilizationEnergyOverdrawMaintenance 98.41675567627
scalar OsgEarthNet.uav[8] utilizationCountMissions 49
scalar OsgEarthNet.uav[8] utilizationCountManeuversMission 726
scalar OsgEarthNet.uav[8] utilizationCountManeuversMaintenance 98
scalar OsgEarthNet.uav[8] utilizationCountChargeState 49
scalar OsgEarthNet.uav[8] utilizationCountOverdrawnAfterMission 1
scalar OsgEarthNet.uav[8] utilizationCountIdleState 49
scalar OsgEarthNet.uav[8] utilizationFail 0
scalar OsgEarthNet.uav[8] simulationTime 259200
scalar OsgEarthNet.uav[9] utilizationSecMission 25529.754415604
scalar OsgEarthNet.uav[9] utilizationSecMaintenance 21298.031575373
scalar OsgEarthNet.uav[9] utilizationSecCharge 167212.26873985
scalar OsgEarthNet.uav[9] utilizationSecIdle 45159.944269172
scalar OsgEarthNet.uav[9] utilizationEnergyMission 122507.81617737
scalar OsgEarthNet.uav[9] utilizationEnergyMaintenance 98405.843948364
scalar OsgEarthNet.uav[9] utilizationEnergyCharge 219183.80078125
scalar OsgEarthNet.uav[9] utilizationEnergyOverdrawMission 0
scalar OsgEarthNet.uav[9] utilizationEnergyOverdrawMaintenance 0
scalar OsgEarthNet.uav[9] utilizationCountMissions 52
scalar OsgEarthNet.uav[9] utilizationCountManeuversMission 739
scalar OsgEarthNet.uav[9] utilizationCountManeuversMaintenance 104
scalar OsgEarthNet.uav[9] utilizationCountChargeState 52
scalar OsgEarthNet.uav[9] utilizationCountOverdrawnAfterMission 0
scalar OsgEarthNet.uav[9] utilizationCountIdleState 52
scalar OsgEarthNet.uav[9] utilizationFail 0
scalar OsgEarthNet.uav[9] simulationTime 259200
scalar OsgEarthNet.uav[10] utilizationSecMission 25697.462891808
scalar OsgEarthNet.uav[10] utilizationSecMaintenance 26008.449107595
scalar OsgEarthNet.uav[10] utilizationSecCharge 186672.0870006
scalar OsgEarthNet.uav[10] utilizationSecIdle 20822
scalar OsgEarthNet.uav[10] utilizationEnergyMission 124784.71701431
scalar OsgEarthNet.uav[10] utilizationEnergyMaintenance 121895.78865814
scalar OsgEarthNet.uav[10] utilizationEnergyCharge 245678.30322266
scalar OsgEarthNet.uav[10] utilizationEnergyOverdrawMission 0
scalar OsgEarthNet.uav[10] utilizationEnergyOverdrawMaintenance 0
scalar OsgEarthNet.uav[10] utilizationCountMissions 57
scalar OsgEarthNet.uav[10] utilizationCountManeuversMission 840
scalar OsgEarthNet.uav[10] utilizationCountManeuversMaintenance 113
scalar OsgEarthNet.uav[10] utilizationCountChargeState 57
scalar OsgEarthNet.uav[10] utilizationCountOverdrawnAfterMission 0
scalar OsgEarthNet.uav[10] utilizationCountIdleState 57
scalar OsgEarthNet.uav[10] utilizationFail 0
scalar OsgEarthNet.uav[10] simulationTime 259200
scalar OsgEarthNet.uav[11] utilizationSecMission 20748.911389538
scalar OsgEarthNet.uav[11] utilizationSecMaintenance 23301.256723955
scalar OsgEarthNet.uav[11] utilizationSecCharge 159790
scalar OsgEarthNet.uav[11] utilizationSecIdle 55359.830886507
scalar OsgEarthNet.uav[11] utilizationEnergyMission 101814.23272552
scalar OsgEarthNet.uav[11] utilizationEnergyMaintenance 109831.63806534
scalar OsgEarthNet.uav[11] utilizationEnergyCharge 208661.56860352
scalar OsgEarthNet.uav[11] utilizationEnergyOverdrawMission 0
scalar OsgEarthNet.uav[11] utilizationEnergyOverdrawMaintenance 0
scalar OsgEarthNet.uav[11] utilizationCountMissions 49
scalar OsgEarthNet.uav[11] utilizationCountManeuversMission 715
scalar OsgEarthNet.uav[11] utilizationCountManeuversMaintenance 99
scalar OsgEarthNet.uav[11] utilizationCountChargeState 49
scalar OsgEarthNet.uav[11] utilizationCountOverdrawnAfterMission 0
scalar OsgEarthNet.uav[11] utilizationCountIdleState 50
scalar OsgEarthNet.uav[11] utilizationFail 0
scalar OsgEarthNet.uav[11] simulationTime 259200
scalar OsgEarthNet.uav[12] utilizationSecMission 25111.06795569
scalar OsgEarthNet.uav[12] utilizationSecMaintenance 22956.92904431
scalar OsgEarthNet.uav[12] utilizationSecCharge 174010
scalar OsgEarthNet.uav[12] utilizationSecIdle 37122.002
scalar OsgEarthNet.uav[12] utilizationEnergyMission 120838.95077515
scalar OsgEarthNet.uav[12] utilizationEnergyMaintenance 107775.36225221
scalar OsgEarthNet.uav[12] utilizationEnergyCharge 226277.4765625
scalar OsgEarthNet.uav[12] utilizationEnergyOverdrawMission 0
scalar OsgEarthNet.uav[12] utilizationEnergyOverdrawMaintenance 0
scalar OsgEarthNet.uav[12] utilizationCountMissions 55
scalar OsgEarthNet.uav[12] utilizationCountManeuversMission 786
scalar OsgEarthNet.uav[12] utilizationCountManeuversMaintenance 110
scalar OsgEarthNet.uav[12] utilizationCountChargeState 54
scalar OsgEarthNet.uav[12] utilizationCountOverdrawnAfterMission 0
scalar OsgEarthNet.uav[12] utilizationCountIdleState 55
scalar OsgEarthNet.uav[12] utilizationFail 0
scalar OsgEarthNet.uav[12] simulationTime 259200
scalar OsgEarthNet.uav[13] utilizationSecMission 24255.215249599
scalar OsgEarthNet.uav[13] utilizationSecMaintenance 21312.012390932
scalar OsgEarthNet.uav[13] utilizationSecCharge 162620.76235947
scalar OsgEarthNet.uav[13] utilizationSecIdle 51012.009
scalar OsgEarthNet.uav[13] utilizationEnergyMission 116946.14847565
scalar OsgEarthNet.uav[13] utilizationEnergyMaintenance 98869.695892334
scalar OsgEarthNet.uav[13] utilizationEnergyCharge 212805.72558594
scalar OsgEarthNet.uav[13] utilizationEnergyOverdrawMission 0
scalar OsgEarthNet.uav[13] utilizationEnergyOverdrawMaintenance 0
scalar OsgEarthNet.uav[13] utilizationCountMissions 51
scalar OsgEarthNet.uav[13] utilizationCountManeuversMission 668
scalar OsgEarthNet.uav[13] utilizationCountManeuversMaintenance 102
scalar OsgEarthNet.uav[13] utilizationCountChargeState 51
scalar OsgEarthNet.uav[13] utilizationCountOverdrawnAfterMission 0
scalar OsgEarthNet.uav[13] utilizationCountIdleState 51
scalar OsgEarthNet.uav[13] utilizationFail 0
scalar OsgEarthNet.uav[13] simulationTime 259200
scalar OsgEarthNet.uav[14] utilizationSecMission 21432.331823081
scalar OsgEarthNet.uav[14] utilizationSecMaintenance 21316.362119426
scalar OsgEarthNet.uav[14] utilizationSecCharge 154950
scalar OsgEarthNet.uav[14] utilizationSecIdle 61501.305057493
scalar OsgEarthNet.uav[14] utilizationEnergyMission 102812.63921738
scalar OsgEarthNet.uav[14] utilizationEnergyMaintenance 100064.50524727
scalar OsgEarthNet.uav[14] utilizationEnergyCharge 201474.09350586
scalar OsgEarthNet.uav[14] utilizationEnergyOverdrawMission 0
scalar OsgEarthNet.uav[14] utilizationEnergyOverdrawMaintenance 0
scalar OsgEarthNet.uav[14] utilizationCountMissions 48
scalar OsgEarthNet.uav[14] utilizationCountManeuversMission 617
scalar OsgEarthNet.uav[14] utilizationCountManeuversMaintenance 97
scalar OsgEarthNet.uav[14] utilizationCountChargeState 48
scalar OsgEarthNet.uav[14] utilizationCountOverdrawnAfterMission 0
scalar OsgEarthNet.uav[14] utilizationCountIdleState 49
scalar OsgEarthNet.uav[14] utilizationFail 0
scalar OsgEarthNet.uav[14] simulationTime 259200
scalar OsgEarthNet.uav[15] utilizationSecMission 17046.819378727
scalar OsgEarthNet.uav[15] utilizationSecMaintenance 18678.40329274
scalar OsgEarthNet.uav[15] utilizationSecCharge 130390
scalar OsgEarthNet.uav[15] utilizationSecIdle 93084.776328534
scalar OsgEarthNet.uav[15] utilizationEnergyMission 82348.376689911
scalar OsgEarthNet.uav[15] utilizationEnergyMaintenance 87082.636222839
scalar OsgEarthNet.uav[15] utilizationEnergyCharge 169766.15454102
scalar OsgEarthNet.uav[15] utilizationEnergyOverdrawMission 0
scalar OsgEarthNet.uav[15] utilizationEnergyOverdrawMaintenance 0
scalar OsgEarthNet.uav[15] utilizationCountMissions 40
scalar OsgEarthNet.uav[15] utilizationCountManeuversMission 573
scalar OsgEarthNet.uav[15] utilizationCountManeuversMaintenance 80
scalar OsgEarthNet.uav[15] utilizationCountChargeState 40
scalar OsgEarthNet.uav[15] utilizationCountOverdrawnAfterMission 0
scalar OsgEarthNet.uav[15] utilizationCountIdleState 41
scalar OsgEarthNet.uav[15] utilizationFail 0
scalar OsgEarthNet.uav[15] simulationTime 259200
scalar OsgEarthNet.uav[16] utilizationSecMission 24766.626370616
scalar OsgEarthNet.uav[16] utilizationSecMaintenance 25215.913256135
scalar OsgEarthNet.uav[16] utilizationSecCharge 180225.45737325
scalar OsgEarthNet.uav[16] utilizationSecIdle 28992.002
scalar OsgEarthNet.uav[16] utilizationEnergyMission 119394.48535156
scalar OsgEarthNet.uav[16] utilizationEnergyMaintenance 117121.40337753
scalar OsgEarthNet.uav[16] utilizationEnergyCharge 233841.12634277
scalar OsgEarthNet.uav[16] utilizationEnergyOverdrawMission 0
scalar OsgEarthNet.uav[16] utilizationEnergyOverdrawMaintenance 0
scalar OsgEarthNet.uav[16] utilizationCountMissions 57
scalar OsgEarthNet.uav[16] utilizationCountManeuversMission 768
scalar OsgEarthNet.uav[16] utilizationCountManeuversMaintenance 114
scalar OsgEarthNet.uav[16] utilizationCountChargeState 57
scalar OsgEarthNet.uav[16] utilizationCountOverdrawnAfterMission 0
scalar OsgEarthNet.uav[16] utilizationCountIdleState 57
scalar OsgEarthNet.uav[16] utilizationFail 0
scalar OsgEarthNet.uav[16] simulationTime 259200
scalar OsgEarthNet.uav[17] utilizationSecMission 20153.833567787
scalar OsgEarthNet.uav[17] utilizationSecMaintenance 19901.045450183
scalar OsgEarthNet.uav[17] utilizationSecCharge 145150
scalar OsgEarthNet.uav[17] utilizationSecIdle 73995.11998203
scalar OsgEarthNet.uav[17] utilizationEnergyMission 97028.283763885
scalar OsgEarthNet.uav[17] utilizationEnergyMaintenance 93456.892974854
scalar OsgEarthNet.uav[17] utilizationEnergyCharge 190613.19335938
scalar OsgEarthNet.uav[17] utilizationEnergyOverdrawMission 0
scalar OsgEarthNet.uav[17] utilizationEnergyOverdrawMaintenance 0
scalar OsgEarthNet.uav[17] utilizationCountMissions 44
scalar OsgEarthNet.uav[17] utilizationCountManeuversMission 576
scalar OsgEarthNet.uav[17] utilizationCountManeuversMaintenance 88
scalar OsgEarthNet.uav[17] utilizationCountChargeState 44
scalar OsgEarthNet.uav[17] utilizationCountOverdrawnAfterMission 0
scalar OsgEarthNet.uav[17] utilizationCountIdleState 45
scalar OsgEarthNet.uav[17] utilizationFail 0
scalar OsgEarthNet.uav[17] simulationTime 259200
scalar OsgEarthNet.uav[18] utilizationSecMission 26896.62396617
scalar OsgEarthNet.uav[18] utilizationSecMaintenance 24753.43231216
scalar OsgEarthNet.uav[18] utilizationSecCharge 188427.94272167
scalar OsgEarthNet.uav[18] utilizationSecIdle 19122
scalar OsgEarthNet.uav[18] utilizationEnergyMission 131094.71813583
scalar OsgEarthNet.uav[18] utilizationEnergyMaintenance 114771.24959564
scalar OsgEarthNet.uav[18] utilizationEnergyCharge 245681.61279297
scalar OsgEarthNet.uav[18] utilizationEnergyOverdrawMission 0
scalar OsgEarthNet.uav[18] utilizationEnergyOverdrawMaintenance 0
scalar OsgEarthNet.uav[18] utilizationCountMissions 59
scalar OsgEarthNet.uav[18] utilizationCountManeuversMission 857
scalar OsgEarthNet.uav[18] utilizationCountManeuversMaintenance 118
scalar OsgEarthNet.uav[18] utilizationCountChargeState 59
scalar OsgEarthNet.uav[18] utilizationCountOverdrawnAfterMission 0
scalar OsgEarthNet.uav[18] utilizationCountIdleState 59
scalar OsgEarthNet.uav[18] utilizationFail 0
scalar OsgEarthNet.uav[18] simulationTime 259200
scalar OsgEarthNet.uav[19] utilizationSecMission 25499.05571368
scalar OsgEarthNet.uav[19] utilizationSecMaintenance 24117.566714176
scalar OsgEarthNet.uav[19] utilizationSecCharge 178031.37257214
scalar OsgEarthNet.uav[19] utilizationSecIdle 31552.004
scalar OsgEarthNet.uav[19] utilizationEnergyMission 124396.76184082
scalar OsgEarthNet.uav[19] utilizationEnergyMaintenance 111250.47784042
scalar OsgEarthNet.uav[19] utilizationEnergyCharge 233081.30566406
scalar OsgEarthNet.uav[19] utilizationEnergyOverdrawMission 0
scalar OsgEarthNet.uav[19] utilizationEnergyOverdrawMaintenance 0
scalar OsgEarthNet.uav[19] utilizationCountMissions 55
scalar OsgEarthNet.uav[19] utilizationCountManeuversMission 763
scalar OsgEarthNet.uav[19] utilizationCountManeuversMaintenance 110
scalar OsgEarthNet.uav[19] utilizationCountChargeState 55
scalar OsgEarthNet.uav[19] utilizationCountOverdrawnAfterMission 0
scalar OsgEarthNet.uav[19] utilizationCountIdleState 55
scalar OsgEarthNet.uav[19] utilizationFail 0
scalar OsgEarthNet.uav[19] simulationTime 259200
scalar OsgEarthNet.uav[20] utilizationSecMission 25042.14736704
scalar OsgEarthNet.uav[20] utilizationSecMaintenance 23395.521094292
scalar OsgEarthNet.uav[20] utilizationSecCharge 174230.32353867
scalar OsgEarthNet.uav[20] utilizationSecIdle 36532.007
scalar OsgEarthNet.uav[20] utilizationEnergyMission 119660.97557068
scalar OsgEarthNet.uav[20] utilizationEnergyMaintenance 109616.4215889
scalar OsgEarthNet.uav[20] utilizationEnergyCharge 228683.51098633
scalar OsgEarthNet.uav[20] utilizationEnergyOverdrawMission 0
scalar OsgEarthNet.uav[20] utilizationEnergyOverdrawMaintenance 0
scalar OsgEarthNet.uav[20] utilizationCountMissions 54
scalar OsgEarthNet.uav[20] utilizationCountManeuversMission 723
scalar OsgEarthNet.uav[20] utilizationCountManeuversMaintenance 108
scalar OsgEarthNet.uav[20] utilizationCountChargeState 54
scalar OsgEarthNet.uav[20] utilizationCountOverdrawnAfterMission 0
scalar OsgEarthNet.uav[20] utilizationCountIdleState 54
scalar OsgEarthNet.uav[20] utilizationFail 0
scalar OsgEarthNet.uav[20] simulationTime 259200
scalar OsgEarthNet.uav[21] utilizationSecMission 27053.071142556
scalar OsgEarthNet.uav[21] utilizationSecMaintenance 24592.907247164
scalar OsgEarthNet.uav[21] utilizationSecCharge 186532.02061028
scalar OsgEarthNet.uav[21] utilizationSecIdle 21022
scalar OsgEarthNet.uav[21] utilizationEnergyMission 131690.9457283
scalar OsgEarthNet.uav[21] utilizationEnergyMaintenance 113458.989254
scalar OsgEarthNet.uav[21] utilizationEnergyCharge 243902.46386719
scalar OsgEarthNet.uav[21] utilizationEnergyOverdrawMission 0
scalar OsgEarthNet.uav[21] utilizationEnergyOverdrawMaintenance 0
scalar OsgEarthNet.uav[21] utilizationCountMissions 58
scalar OsgEarthNet.uav[21] utilizationCountManeuversMission 838
scalar OsgEarthNet.uav[21] utilizationCountManeuversMaintenance 115
scalar OsgEarthNet.uav[21] utilizationCountChargeState 58
scalar OsgEarthNet.uav[21] utilizationCountOverdrawnAfterMission 0
scalar OsgEarthNet.uav[21] utilizationCountIdleState 58
scalar OsgEarthNet.uav[21] utilizationFail 0
scalar OsgEarthNet.uav[21] simulationTime 259200
scalar OsgEarthNet.uav[22] utilizationSecMission 22282.608150097
scalar OsgEarthNet.uav[22] utilizationSecMaintenance 24728.215739492
scalar OsgEarthNet.uav[22] utilizationSecCharge 169120
scalar OsgEarthNet.uav[22] utilizationSecIdle 43069.175110411
scalar OsgEarthNet.uav[22] utilizationEnergyMission 107186.39609146
scalar OsgEarthNet.uav[22] utilizationEnergyMaintenance 114905.36540422
scalar OsgEarthNet.uav[22] utilizationEnergyCharge 220726.14355469
scalar OsgEarthNet.uav[22] utilizationEnergyOverdrawMission 0
scalar OsgEarthNet.uav[22] utilizationEnergyOverdrawMaintenance 139.1202545166
scalar OsgEarthNet.uav[22] utilizationCountMissions 52
scalar OsgEarthNet.uav[22] utilizationCountManeuversMission 675
scalar OsgEarthNet.uav[22] utilizationCountManeuversMaintenance 105
scalar OsgEarthNet.uav[22] utilizationCountChargeState 52
scalar OsgEarthNet.uav[22] utilizationCountOverdrawnAfterMission 1
scalar OsgEarthNet.uav[22] utilizationCountIdleState 53
scalar OsgEarthNet.uav[22] utilizationFail 0
scalar OsgEarthNet.uav[22] simulationTime 259200
scalar OsgEarthNet.uav[23] utilizationSecMission 3157.1181513072
scalar OsgEarthNet.uav[23] utilizationSecMaintenance 3115.8531458056
scalar OsgEarthNet.uav[23] utilizationSecCharge 22810
scalar OsgEarthNet.uav[23] utilizationSecIdle 230117.02770289
scalar OsgEarthNet.uav[23] utilizationEnergyMission 15548.813785553
scalar OsgEarthNet.uav[23] utilizationEnergyMaintenance 14471.653141022
scalar OsgEarthNet.uav[23] utilizationEnergyCharge 29819.119140625
scalar OsgEarthNet.uav[23] utilizationEnergyOverdrawMission 0
scalar OsgEarthNet.uav[23] utilizationEnergyOverdrawMaintenance 0
scalar OsgEarthNet.uav[23] utilizationCountMissions 7
scalar OsgEarthNet.uav[23] utilizationCountManeuversMission 90
scalar OsgEarthNet.uav[23] utilizationCountManeuversMaintenance 14
scalar OsgEarthNet.uav[23] utilizationCountChargeState 7
scalar OsgEarthNet.uav[23] utilizationCountOverdrawnAfterMission 0
scalar OsgEarthNet.uav[23] utilizationCountIdleState 8
scalar OsgEarthNet.uav[23] utilizationFail 0
scalar OsgEarthNet.uav[23] simulationTime 259200
scalar OsgEarthNet.uav[24] utilizationSecMission 24846.677987042
scalar OsgEarthNet.uav[24] utilizationSecMaintenance 23935.145160197
scalar OsgEarthNet.uav[24] utilizationSecCharge 176485.84577172
scalar OsgEarthNet.uav[24] utilizationSecIdle 33932.330081043
scalar OsgEarthNet.uav[24] utilizationEnergyMission 121644.98095322
scalar OsgEarthNet.uav[24] utilizationEnergyMaintenance 111855.46655655
scalar OsgEarthNet.uav[24] utilizationEnergyCharge 230255.38439941
scalar OsgEarthNet.uav[24] utilizationEnergyOverdrawMission 0
scalar OsgEarthNet.uav[24] utilizationEnergyOverdrawMaintenance 0
scalar OsgEarthNet.uav[24] utilizationCountMissions 55
scalar OsgEarthNet.uav[24] utilizationCountManeuversMission 767
scalar OsgEarthNet.uav[24] utilizationCountManeuversMaintenance 110
scalar OsgEarthNet.uav[24] utilizationCountChargeState 55
scalar OsgEarthNet.uav[24] utilizationCountOverdrawnAfterMission 0
scalar OsgEarthNet.uav[24] utilizationCountIdleState 55
scalar OsgEarthNet.uav[24] utilizationFail 0
scalar OsgEarthNet.uav[24] simulationTime 259200
scalar OsgEarthNet.uav[25] utilizationSecMission 25060.428839151
scalar OsgEarthNet.uav[25] utilizationSecMaintenance 23874.535783556
scalar OsgEarthNet.uav[25] utilizationSecCharge 176393.03237729
scalar OsgEarthNet.uav[25] utilizationSecIdle 33872.002
scalar OsgEarthNet.uav[25] utilizationEnergyMission 121844.9161911
scalar OsgEarthNet.uav[25] utilizationEnergyMaintenance 111131.39603043
scalar OsgEarthNet.uav[25] utilizationEnergyCharge 228497.4710083
scalar OsgEarthNet.uav[25] utilizationEnergyOverdrawMission 0
scalar OsgEarthNet.uav[25] utilizationEnergyOverdrawMaintenance 0
scalar OsgEarthNet.uav[25] utilizationCountMissions 56
scalar OsgEarthNet.uav[25] utilizationCountManeuversMission 863
scalar OsgEarthNet.uav[25] utilizationCountManeuversMaintenance 112
scalar OsgEarthNet.uav[25] utilizationCountChargeState 56
scalar OsgEarthNet.uav[25] utilizationCountOverdrawnAfterMission 0
scalar OsgEarthNet.uav[25] utilizationCountIdleState 56
scalar OsgEarthNet.uav[25] utilizationFail 0
scalar OsgEarthNet.uav[25] simulationTime 259200
scalar OsgEarthNet.uav[26] utilizationSecMission 21622.988353149
scalar OsgEarthNet.uav[26] utilizationSecMaintenance 23333.56704227
scalar OsgEarthNet.uav[26] utilizationSecCharge 162459.42432533
scalar OsgEarthNet.uav[26] utilizationSecIdle 51784.019279251
scalar OsgEarthNet.uav[26] utilizationEnergyMission 105171.4246254
scalar OsgEarthNet.uav[26] utilizationEnergyMaintenance 109625.8825531
scalar OsgEarthNet.uav[26] utilizationEnergyCharge 211667.76611328
scalar OsgEarthNet.uav[26] utilizationEnergyOverdrawMission 0
scalar OsgEarthNet.uav[26] utilizationEnergyOverdrawMaintenance 0
scalar OsgEarthNet.uav[26] utilizationCountMissions 51
scalar OsgEarthNet.uav[26] utilizationCountManeuversMission 712
scalar OsgEarthNet.uav[26] utilizationCountManeuversMaintenance 102
scalar OsgEarthNet.uav[26] utilizationCountChargeState 51
scalar OsgEarthNet.uav[26] utilizationCountOverdrawnAfterMission 0
scalar OsgEarthNet.uav[26] utilizationCountIdleState 51
scalar OsgEarthNet.uav[26] utilizationFail 0
scalar OsgEarthNet.uav[26] simulationTime 259200
scalar OsgEarthNet.uav[27] utilizationSecMission 16478.919785181
scalar OsgEarthNet.uav[27] utilizationSecMaintenance 13561.008012696
scalar OsgEarthNet.uav[27] utilizationSecCharge 109254.62511343
scalar OsgEarthNet.uav[27] utilizationSecIdle 119905.44608869
scalar OsgEarthNet.uav[27] utilizationEnergyMission 79401.620662689
scalar OsgEarthNet.uav[27] utilizationEnergyMaintenance 63350.648971558
scalar OsgEarthNet.uav[27] utilizationEnergyCharge 143080.65673828
scalar OsgEarthNet.uav[27] utilizationEnergyOverdrawMission 0
scalar OsgEarthNet.uav[27] utilizationEnergyOverdrawMaintenance 0
scalar OsgEarthNet.uav[27] utilizationCountMissions 34
scalar OsgEarthNet.uav[27] utilizationCountManeuversMission 465
scalar OsgEarthNet.uav[27] utilizationCountManeuversMaintenance 68
scalar OsgEarthNet.uav[27] utilizationCountChargeState 34
scalar OsgEarthNet.uav[27] utilizationCountOverdrawnAfterMission 0
scalar OsgEarthNet.uav[27] utilizationCountIdleState 34
scalar OsgEarthNet.uav[27] utilizationFail 0
scalar OsgEarthNet.uav[27] simulationTime 259200
scalar OsgEarthNet.uav[28] utilizationSecMission 9917.9649687073
scalar OsgEarthNet.uav[28] utilizationSecMaintenance 10417.57893959
scalar OsgEarthNet.uav[28] utilizationSecCharge 70401.53128859
scalar OsgEarthNet.uav[28] utilizationSecIdle 168462.92380311
scalar OsgEarthNet.uav[28] utilizationEnergyMission 46547.183803558
scalar OsgEarthNet.uav[28] utilizationEnergyMaintenance 48032.398899078
scalar OsgEarthNet.uav[28] utilizationEnergyCharge 93205.633789062
scalar OsgEarthNet.uav[28] utilizationEnergyOverdrawMission 0
scalar OsgEarthNet.uav[28] utilizationEnergyOverdrawMaintenance 7.8142905235291
scalar OsgEarthNet.uav[28] utilizationCountMissions 22
scalar OsgEarthNet.uav[28] utilizationCountManeuversMission 258
scalar OsgEarthNet.uav[28] utilizationCountManeuversMaintenance 44
scalar OsgEarthNet.uav[28] utilizationCountChargeState 22
scalar OsgEarthNet.uav[28] utilizationCountOverdrawnAfterMission 1
scalar OsgEarthNet.uav[28] utilizationCountIdleState 22
scalar OsgEarthNet.uav[28] utilizationFail 0
scalar OsgEarthNet.uav[28] simulationTime 259200
scalar OsgEarthNet.uav[29] utilizationSecMission 13812.27651853
scalar OsgEarthNet.uav[29] utilizationSecMaintenance 11629.320955574
scalar OsgEarthNet.uav[29] utilizationSecCharge 90430
scalar OsgEarthNet.uav[29] utilizationSecIdle 143328.4015259
scalar OsgEarthNet.uav[29] utilizationEnergyMission 64187.222904205
scalar OsgEarthNet.uav[29] utilizationEnergyMaintenance 54363.753733077
scalar OsgEarthNet.uav[29] utilizationEnergyCharge 117763.24658203
scalar OsgEarthNet.uav[29] utilizationEnergyOverdrawMission 0
scalar OsgEarthNet.uav[29] utilizationEnergyOverdrawMaintenance 0
scalar OsgEarthNet.uav[29] utilizationCountMissions 28
scalar OsgEarthNet.uav[29] utilizationCountManeuversMission 377
scalar OsgEarthNet.uav[29] utilizationCountManeuversMaintenance 57
scalar OsgEarthNet.uav[29] utilizationCountChargeState 28
scalar OsgEarthNet.uav[29] utilizationCountOverdrawnAfterMission 0
scalar OsgEarthNet.uav[29] utilizationCountIdleState 29
scalar OsgEarthNet.uav[29] utilizationFail 0
scalar OsgEarthNet.uav[29] simulationTime 259200
scalar OsgEarthNet.uav[30] utilizationSecMission 5646.6990013029
scalar OsgEarthNet.uav[30] utilizationSecMaintenance 6061.6972823721
scalar OsgEarthNet.uav[30] utilizationSecCharge 39728.840783948
scalar OsgEarthNet.uav[30] utilizationSecIdle 207762.76193238
scalar OsgEarthNet.uav[30] utilizationEnergyMission 26808.90712738
scalar OsgEarthNet.uav[30] utilizationEnergyMaintenance 28062.818626404
scalar OsgEarthNet.uav[30] utilizationEnergyCharge 52163.852050781
scalar OsgEarthNet.uav[30] utilizationEnergyOverdrawMission 0
scalar OsgEarthNet.uav[30] utilizationEnergyOverdrawMaintenance 0
scalar OsgEarthNet.uav[30] utilizationCountMissions 13
scalar OsgEarthNet.uav[30] utilizationCountManeuversMission 133
scalar OsgEarthNet.uav[30] utilizationCountManeuversMaintenance 26
scalar OsgEarthNet.uav[30] utilizationCountChargeState 13
scalar OsgEarthNet.uav[30] utilizationCountOverdrawnAfterMission 0
scalar OsgEarthNet.uav[30] utilizationCountIdleState 13
scalar OsgEarthNet.uav[30] utilizationFail 0
scalar OsgEarthNet.uav[30] simulationTime 259200
scalar OsgEarthNet.uav[31] utilizationSecMission 22642.641675014
scalar OsgEarthNet.uav[31] utilizationSecMaintenance 29405.417089708
scalar OsgEarthNet.uav[31] utilizationSecCharge 189153.4135732
scalar OsgEarthNet.uav[31] utilizationSecIdle 17998.526662077
scalar OsgEarthNet.uav[31] utilizationEnergyMission 110499.98825836
scalar OsgEarthNet.uav[31] utilizationEnergyMaintenance 136901.23773956
scalar OsgEarthNet.uav[31] utilizationEnergyCharge 246825.94482422
scalar OsgEarthNet.uav[31] utilizationEnergyOverdrawMission 0
scalar OsgEarthNet.uav[31] utilizationEnergyOverdrawMaintenance 0
scalar OsgEarthNet.uav[31] utilizationCountMissions 59
scalar OsgEarthNet.uav[31] utilizationCountManeuversMission 781
scalar OsgEarthNet.uav[31] utilizationCountManeuversMaintenance 118
scalar OsgEarthNet.uav[31] utilizationCountChargeState 59
scalar OsgEarthNet.uav[31] utilizationCountOverdrawnAfterMission 0
scalar OsgEarthNet.uav[31] utilizationCountIdleState 58
scalar OsgEarthNet.uav[31] utilizationFail 0
scalar OsgEarthNet.uav[31] simulationTime 259200
scalar OsgEarthNet.uav[32] utilizationSecMission 25264.777511025
scalar OsgEarthNet.uav[32] utilizationSecMaintenance 26183.221488975
scalar OsgEarthNet.uav[32] utilizationSecCharge 186530
scalar OsgEarthNet.uav[32] utilizationSecIdle 21222
scalar OsgEarthNet.uav[32] utilizationEnergyMission 123951.350753
scalar OsgEarthNet.uav[32] utilizationEnergyMaintenance 122146.00040054
scalar OsgEarthNet.uav[32] utilizationEnergyCharge 243688.43115234
scalar OsgEarthNet.uav[32] utilizationEnergyOverdrawMission 0
scalar OsgEarthNet.uav[32] utilizationEnergyOverdrawMaintenance 0
scalar OsgEarthNet.uav[32] utilizationCountMissions 57
scalar OsgEarthNet.uav[32] utilizationCountManeuversMission 770
scalar OsgEarthNet.uav[32] utilizationCountManeuversMaintenance 114
scalar OsgEarthNet.uav[32] utilizationCountChargeState 57
scalar OsgEarthNet.uav[32] utilizationCountOverdrawnAfterMission 0
scalar OsgEarthNet.uav[32] utilizationCountIdleState 58
scalar OsgEarthNet.uav[32] utilizationFail 0
scalar OsgEarthNet.uav[32] simulationTime 259200
scalar OsgEarthNet.uav[33] utilizationSecMission 22700.310933451
scalar OsgEarthNet.uav[33] utilizationSecMaintenance 26478.917714814
scalar OsgEarthNet.uav[33] utilizationSecCharge 177948.76435173
scalar OsgEarthNet.uav[33] utilizationSecIdle 32072.006
scalar OsgEarthNet.uav[33] utilizationEnergyMission 111684.46974564
scalar OsgEarthNet.uav[33] utilizationEnergyMaintenance 123393.08901215
scalar OsgEarthNet.uav[33] utilizationEnergyCharge 232900.06591797
scalar OsgEarthNet.uav[33] utilizationEnergyOverdrawMission 0
scalar OsgEarthNet.uav[33] utilizationEnergyOverdrawMaintenance 0
scalar OsgEarthNet.uav[33] utilizationCountMissions 55
scalar OsgEarthNet.uav[33] utilizationCountManeuversMission 785
scalar OsgEarthNet.uav[33] utilizationCountManeuversMaintenance 110
scalar OsgEarthNet.uav[33] utilizationCountChargeState 55
scalar OsgEarthNet.uav[33] utilizationCountOverdrawnAfterMission 0
scalar OsgEarthNet.uav[33] utilizationCountIdleState 54
scalar OsgEarthNet.uav[33] utilizationFail 0
scalar OsgEarthNet.uav[33] simulationTime 259200
scalar OsgEarthNet.uav[34] utilizationSecMission 12473.590280535
scalar OsgEarthNet.uav[34] utilizationSecMaintenance 11300.927821285
scalar OsgEarthNet.uav[34] utilizationSecCharge 86145.559755633
scalar OsgEarthNet.uav[34] utilizationSecIdle 149279.92114255
scalar OsgEarthNet.uav[34] utilizationEnergyMission 59263.46818161
scalar OsgEarthNet.uav[34] utilizationEnergyMaintenance 52078.164398193
scalar OsgEarthNet.uav[34] utilizationEnergyCharge 111749.42651367
scalar OsgEarthNet.uav[34] utilizationEnergyOverdrawMission 0
scalar OsgEarthNet.uav[34] utilizationEnergyOverdrawMaintenance 48.962627410889
scalar OsgEarthNet.uav[34] utilizationCountMissions 27
scalar OsgEarthNet.uav[34] utilizationCountManeuversMission 333
scalar OsgEarthNet.uav[34] utilizationCountManeuversMaintenance 54
scalar OsgEarthNet.uav[34] utilizationCountChargeState 27
scalar OsgEarthNet.uav[34] utilizationCountOverdrawnAfterMission 1
scalar OsgEarthNet.uav[34] utilizationCountIdleState 27
scalar OsgEarthNet.uav[34] utilizationFail 0
scalar OsgEarthNet.uav[34] simulationTime 259200
scalar OsgEarthNet.uav[35] utilizationSecMission 19351.273175474
scalar OsgEarthNet.uav[35] utilizationSecMaintenance 21463.153211342
scalar OsgEarthNet.uav[35] utilizationSecCharge 146800
scalar OsgEarthNet.uav[35] utilizationSecIdle 71585.572613183
scalar OsgEarthNet.uav[35] utilizationEnergyMission 93785.049583435
scalar OsgEarthNet.uav[35] utilizationEnergyMaintenance 99130.096031189
scalar OsgEarthNet.uav[35] utilizationEnergyCharge 191589.02783203
scalar OsgEarthNet.uav[35] utilizationEnergyOverdrawMission 0
scalar OsgEarthNet.uav[35] utilizationEnergyOverdrawMaintenance 0
scalar OsgEarthNet.uav[35] utilizationCountMissions 45
scalar OsgEarthNet.uav[35] utilizationCountManeuversMission 584
scalar OsgEarthNet.uav[35] utilizationCountManeuversMaintenance 90
scalar OsgEarthNet.uav[35] utilizationCountChargeState 45
scalar OsgEarthNet.uav[35] utilizationCountOverdrawnAfterMission 0
scalar OsgEarthNet.uav[35] utilizationCountIdleState 46
scalar OsgEarthNet.uav[35] utilizationFail 0
scalar OsgEarthNet.uav[35] simulationTime 259200
scalar OsgEarthNet.uav[36] utilizationSecMission 21141.144745958
scalar OsgEarthNet.uav[36] utilizationSecMaintenance 17584.564350389
scalar OsgEarthNet.uav[36] utilizationSecCharge 137832.27790365
scalar OsgEarthNet.uav[36] utilizationSecIdle 82642.012
scalar OsgEarthNet.uav[36] utilizationEnergyMission 101793.12620163
scalar OsgEarthNet.uav[36] utilizationEnergyMaintenance 82227.086402893
scalar OsgEarthNet.uav[36] utilizationEnergyCharge 180665.78540039
scalar OsgEarthNet.uav[36] utilizationEnergyOverdrawMission 0
scalar OsgEarthNet.uav[36] utilizationEnergyOverdrawMaintenance 0
scalar OsgEarthNet.uav[36] utilizationCountMissions 43
scalar OsgEarthNet.uav[36] utilizationCountManeuversMission 566
scalar OsgEarthNet.uav[36] utilizationCountManeuversMaintenance 86
scalar OsgEarthNet.uav[36] utilizationCountChargeState 43
scalar OsgEarthNet.uav[36] utilizationCountOverdrawnAfterMission 0
scalar OsgEarthNet.uav[36] utilizationCountIdleState 43
scalar OsgEarthNet.uav[36] utilizationFail 0
scalar OsgEarthNet.uav[36] simulationTime 259200
scalar OsgEarthNet.uav[37] utilizationSecMission 19043.454451136
scalar OsgEarthNet.uav[37] utilizationSecMaintenance 16160.821448867
scalar OsgEarthNet.uav[37] utilizationSecCharge 125713.88411683
scalar OsgEarthNet.uav[37] utilizationSecIdle 98281.83898317
scalar OsgEarthNet.uav[37] utilizationEnergyMission 90827.969863892
scalar OsgEarthNet.uav[37] utilizationEnergyMaintenance 76210.82926178
scalar OsgEarthNet.uav[37] utilizationEnergyCharge 165543.13977051
scalar OsgEarthNet.uav[37] utilizationEnergyOverdrawMission 0
scalar OsgEarthNet.uav[37] utilizationEnergyOverdrawMaintenance 0
scalar OsgEarthNet.uav[37] utilizationCountMissions 39
scalar OsgEarthNet.uav[37] utilizationCountManeuversMission 558
scalar OsgEarthNet.uav[37] utilizationCountManeuversMaintenance 78
scalar OsgEarthNet.uav[37] utilizationCountChargeState 39
scalar OsgEarthNet.uav[37] utilizationCountOverdrawnAfterMission 0
scalar OsgEarthNet.uav[37] utilizationCountIdleState 39
scalar OsgEarthNet.uav[37] utilizationFail 0
scalar OsgEarthNet.uav[37] simulationTime 259200
scalar OsgEarthNet.uav[38] utilizationSecMission 21365.765310517
scalar OsgEarthNet.uav[38] utilizationSecMaintenance 21044.598356235
scalar OsgEarthNet.uav[38] utilizationSecCharge 153800.78717125
scalar OsgEarthNet.uav[38] utilizationSecIdle 62988.848161997
scalar OsgEarthNet.uav[38] utilizationEnergyMission 101625.9048996
scalar OsgEarthNet.uav[38] utilizationEnergyMaintenance 97863.784996033
scalar OsgEarthNet.uav[38] utilizationEnergyCharge 199840.5793457
scalar OsgEarthNet.uav[38] utilizationEnergyOverdrawMission 0
scalar OsgEarthNet.uav[38] utilizationEnergyOverdrawMaintenance 0
scalar OsgEarthNet.uav[38] utilizationCountMissions 48
scalar OsgEarthNet.uav[38] utilizationCountManeuversMission 620
scalar OsgEarthNet.uav[38] utilizationCountManeuversMaintenance 96
scalar OsgEarthNet.uav[38] utilizationCountChargeState 48
scalar OsgEarthNet.uav[38] utilizationCountOverdrawnAfterMission 0
scalar OsgEarthNet.uav[38] utilizationCountIdleState 48
scalar OsgEarthNet.uav[38] utilizationFail 0
scalar OsgEarthNet.uav[38] simulationTime 259200
scalar OsgEarthNet.uav[39] utilizationSecMission 19177.580744716
scalar OsgEarthNet.uav[39] utilizationSecMaintenance 23759.142500198
scalar OsgEarthNet.uav[39] utilizationSecCharge 152651.26575509
scalar OsgEarthNet.uav[39] utilizationSecIdle 63612.01
scalar OsgEarthNet.uav[39] utilizationEnergyMission 92997.693435669
scalar OsgEarthNet.uav[39] utilizationEnergyMaintenance 110209.03681946
scalar OsgEarthNet.uav[39] utilizationEnergyCharge 198954.72344971
scalar OsgEarthNet.uav[39] utilizationEnergyOverdrawMission 0
scalar OsgEarthNet.uav[39] utilizationEnergyOverdrawMaintenance 0
scalar OsgEarthNet.uav[39] utilizationCountMissions 48
scalar OsgEarthNet.uav[39] utilizationCountManeuversMission 590
scalar OsgEarthNet.uav[39] utilizationCountManeuversMaintenance 96
scalar OsgEarthNet.uav[39] utilizationCountChargeState 48
scalar OsgEarthNet.uav[39] utilizationCountOverdrawnAfterMission 0
scalar OsgEarthNet.uav[39] utilizationCountIdleState 48
scalar OsgEarthNet.uav[39] utilizationFail 0
scalar OsgEarthNet.uav[39] simulationTime 259200
scalar OsgEarthNet.uav[40] utilizationSecMission 11074.827207147
scalar OsgEarthNet.uav[40] utilizationSecMaintenance 9939.5444861786
scalar OsgEarthNet.uav[40] utilizationSecCharge 74660
scalar OsgEarthNet.uav[40] utilizationSecIdle 163525.62730667
scalar OsgEarthNet.uav[40] utilizationEnergyMission 52224.123691559
scalar OsgEarthNet.uav[40] utilizationEnergyMaintenance 46497.659515381
scalar OsgEarthNet.uav[40] utilizationEnergyCharge 97564.167236328
scalar OsgEarthNet.uav[40] utilizationEnergyOverdrawMission 0
scalar OsgEarthNet.uav[40] utilizationEnergyOverdrawMaintenance 154.38510131836
scalar OsgEarthNet.uav[40] utilizationCountMissions 23
scalar OsgEarthNet.uav[40] utilizationCountManeuversMission 289
scalar OsgEarthNet.uav[40] utilizationCountManeuversMaintenance 46
scalar OsgEarthNet.uav[40] utilizationCountChargeState 23
scalar OsgEarthNet.uav[40] utilizationCountOverdrawnAfterMission 1
scalar OsgEarthNet.uav[40] utilizationCountIdleState 24
scalar OsgEarthNet.uav[40] utilizationFail 0
scalar OsgEarthNet.uav[40] simulationTime 259200
scalar OsgEarthNet.uav[41] utilizationSecMission 23841.188832848
scalar OsgEarthNet.uav[41] utilizationSecMaintenance 25754.477979104
scalar OsgEarthNet.uav[41] utilizationSecCharge 176772.32818805
scalar OsgEarthNet.uav[41] utilizationSecIdle 32832.004
scalar OsgEarthNet.uav[41] utilizationEnergyMission 115520.13174057
scalar OsgEarthNet.uav[41] utilizationEnergyMaintenance 120399.3155098
scalar OsgEarthNet.uav[41] utilizationEnergyCharge 231211.39685059
scalar OsgEarthNet.uav[41] utilizationEnergyOverdrawMission 0
scalar OsgEarthNet.uav[41] utilizationEnergyOverdrawMaintenance 0
scalar OsgEarthNet.uav[41] utilizationCountMissions 55
scalar OsgEarthNet.uav[41] utilizationCountManeuversMission 710
scalar OsgEarthNet.uav[41] utilizationCountManeuversMaintenance 110
scalar OsgEarthNet.uav[41] utilizationCountChargeState 55
scalar OsgEarthNet.uav[41] utilizationCountOverdrawnAfterMission 0
scalar OsgEarthNet.uav[41] utilizationCountIdleState 54
scalar OsgEarthNet.uav[41] utilizationFail 0
scalar OsgEarthNet.uav[41] simulationTime 259200
scalar OsgEarthNet.uav[42] utilizationSecMission 26250.709909279
scalar OsgEarthNet.uav[42] utilizationSecMaintenance 23446.679621427
scalar OsgEarthNet.uav[42] utilizationSecCharge 180110.60846929
scalar OsgEarthNet.uav[42] utilizationSecIdle 29392.001
scalar OsgEarthNet.uav[42] utilizationEnergyMission 128536.51083374
scalar OsgEarthNet.uav[42] utilizationEnergyMaintenance 108717.77337646
scalar OsgEarthNet.uav[42] utilizationEnergyCharge 235434.55834961
scalar OsgEarthNet.uav[42] utilizationEnergyOverdrawMission 0
scalar OsgEarthNet.uav[42] utilizationEnergyOverdrawMaintenance 0
scalar OsgEarthNet.uav[42] utilizationCountMissions 56
scalar OsgEarthNet.uav[42] utilizationCountManeuversMission 804
scalar OsgEarthNet.uav[42] utilizationCountManeuversMaintenance 112
scalar OsgEarthNet.uav[42] utilizationCountChargeState 56
scalar OsgEarthNet.uav[42] utilizationCountOverdrawnAfterMission 0
scalar OsgEarthNet.uav[42] utilizationCountIdleState 56
scalar OsgEarthNet.uav[42] utilizationFail 0
scalar OsgEarthNet.uav[42] simulationTime 259200
scalar OsgEarthNet.uav[43] utilizationSecMission 21153.659900825
scalar OsgEarthNet.uav[43] utilizationSecMaintenance 21120.521664548
scalar OsgEarthNet.uav[43] utilizationSecCharge 153321.17200318
scalar OsgEarthNet.uav[43] utilizationSecIdle 63604.645431445
scalar OsgEarthNet.uav[43] utilizationEnergyMission 101365.22906113
scalar OsgEarthNet.uav[43] utilizationEnergyMaintenance 99269.224292755
scalar OsgEarthNet.uav[43] utilizationEnergyCharge 200278.40795898
scalar OsgEarthNet.uav[43] utilizationEnergyOverdrawMission 0
scalar OsgEarthNet.uav[43] utilizationEnergyOverdrawMaintenance 114.96292114258
scalar OsgEarthNet.uav[43] utilizationCountMissions 47
scalar OsgEarthNet.uav[43] utilizationCountManeuversMission 596
scalar OsgEarthNet.uav[43] utilizationCountManeuversMaintenance 94
scalar OsgEarthNet.uav[43] utilizationCountChargeState 47
scalar OsgEarthNet.uav[43] utilizationCountOverdrawnAfterMission 1
scalar OsgEarthNet.uav[43] utilizationCountIdleState 47
scalar OsgEarthNet.uav[43] utilizationFail 0
scalar OsgEarthNet.uav[43] simulationTime 259200
scalar OsgEarthNet.uav[44] utilizationSecMission 26120.14017011
scalar OsgEarthNet.uav[44] utilizationSecMaintenance 26061.257926055
scalar OsgEarthNet.uav[44] utilizationSecCharge 189076.60090383
scalar OsgEarthNet.uav[44] utilizationSecIdle 17942
scalar OsgEarthNet.uav[44] utilizationEnergyMission 127181.68334961
scalar OsgEarthNet.uav[44] utilizationEnergyMaintenance 121304.70337677
scalar OsgEarthNet.uav[44] utilizationEnergyCharge 246551.88818359
scalar OsgEarthNet.uav[44] utilizationEnergyOverdrawMission 0
scalar OsgEarthNet.uav[44] utilizationEnergyOverdrawMaintenance 0
scalar OsgEarthNet.uav[44] utilizationCountMissions 59
scalar OsgEarthNet.uav[44] utilizationCountManeuversMission 819
scalar OsgEarthNet.uav[44] utilizationCountManeuversMaintenance 118
scalar OsgEarthNet.uav[44] utilizationCountChargeState 59
scalar OsgEarthNet.uav[44] utilizationCountOverdrawnAfterMission 0
scalar OsgEarthNet.uav[44] utilizationCountIdleState 59
scalar OsgEarthNet.uav[44] utilizationFail 0
scalar OsgEarthNet.uav[44] simulationTime 259200
scalar OsgEarthNet.uav[45] utilizationSecMission 24858.290356487
scalar OsgEarthNet.uav[45] utilizationSecMaintenance 24054.444547188
scalar OsgEarthNet.uav[45] utilizationSecCharge 178370
scalar OsgEarthNet.uav[45] utilizationSecIdle 31917.264096326
scalar OsgEarthNet.uav[45] utilizationEnergyMission 121708.25437164
scalar OsgEarthNet.uav[45] utilizationEnergyMaintenance 111657.95349503
scalar OsgEarthNet.uav[45] utilizationEnergyCharge 232626.26245117
scalar OsgEarthNet.uav[45] utilizationEnergyOverdrawMission 0
scalar OsgEarthNet.uav[45] utilizationEnergyOverdrawMaintenance 0
scalar OsgEarthNet.uav[45] utilizationCountMissions 55
scalar OsgEarthNet.uav[45] utilizationCountManeuversMission 863
scalar OsgEarthNet.uav[45] utilizationCountManeuversMaintenance 110
scalar OsgEarthNet.uav[45] utilizationCountChargeState 55
scalar OsgEarthNet.uav[45] utilizationCountOverdrawnAfterMission 0
scalar OsgEarthNet.uav[45] utilizationCountIdleState 55
scalar OsgEarthNet.uav[45] utilizationFail 0
scalar OsgEarthNet.uav[45] simulationTime 259200
scalar OsgEarthNet.uav[46] utilizationSecMission 24942.053044729
scalar OsgEarthNet.uav[46] utilizationSecMaintenance 26737.455505444
scalar OsgEarthNet.uav[46] utilizationSecCharge 186638.49044983
scalar OsgEarthNet.uav[46] utilizationSecIdle 20882
scalar OsgEarthNet.uav[46] utilizationEnergyMission 121756.8492012
scalar OsgEarthNet.uav[46] utilizationEnergyMaintenance 124322.88550568
scalar OsgEarthNet.uav[46] utilizationEnergyCharge 245137.01977539
scalar OsgEarthNet.uav[46] utilizationEnergyOverdrawMission 0
scalar OsgEarthNet.uav[46] utilizationEnergyOverdrawMaintenance 0
scalar OsgEarthNet.uav[46] utilizationCountMissions 57
scalar OsgEarthNet.uav[46] utilizationCountManeuversMission 749
scalar OsgEarthNet.uav[46] utilizationCountManeuversMaintenance 114
scalar OsgEarthNet.uav[46] utilizationCountChargeState 57
scalar OsgEarthNet.uav[46] utilizationCountOverdrawnAfterMission 0
scalar OsgEarthNet.uav[46] utilizationCountIdleState 57
scalar OsgEarthNet.uav[46] utilizationFail 0
scalar OsgEarthNet.uav[46] simulationTime 259200
scalar OsgEarthNet.uav[47] utilizationSecMission 9678.5995378254
scalar OsgEarthNet.uav[47] utilizationSecMaintenance 10083.765997048
scalar OsgEarthNet.uav[47] utilizationSecCharge 71960
scalar OsgEarthNet.uav[47] utilizationSecIdle 167477.63346513
scalar OsgEarthNet.uav[47] utilizationEnergyMission 46189.873153687
scalar OsgEarthNet.uav[47] utilizationEnergyMaintenance 47286.477031708
scalar OsgEarthNet.uav[47] utilizationEnergyCharge 94284.786132812
scalar OsgEarthNet.uav[47] utilizationEnergyOverdrawMission 0
scalar OsgEarthNet.uav[47] utilizationEnergyOverdrawMaintenance 0
scalar OsgEarthNet.uav[47] utilizationCountMissions 22
scalar OsgEarthNet.uav[47] utilizationCountManeuversMission 261
scalar OsgEarthNet.uav[47] utilizationCountManeuversMaintenance 44
scalar OsgEarthNet.uav[47] utilizationCountChargeState 22
scalar OsgEarthNet.uav[47] utilizationCountOverdrawnAfterMission 0
scalar OsgEarthNet.uav[47] utilizationCountIdleState 22
scalar OsgEarthNet.uav[47] utilizationFail 0
scalar OsgEarthNet.uav[47] simulationTime 259200
scalar OsgEarthNet.uav[48] utilizationSecMission 8490.3577317928
scalar OsgEarthNet.uav[48] utilizationSecMaintenance 8564.6169840897
scalar OsgEarthNet.uav[48] utilizationSecCharge 61060
scalar OsgEarthNet.uav[48] utilizationSecIdle 181085.02428412
scalar OsgEarthNet.uav[48] utilizationEnergyMission 40540.327167511
scalar OsgEarthNet.uav[48] utilizationEnergyMaintenance 39592.041973114
scalar OsgEarthNet.uav[48] utilizationEnergyCharge 79348.300292969
scalar OsgEarthNet.uav[48] utilizationEnergyOverdrawMission 0
scalar OsgEarthNet.uav[48] utilizationEnergyOverdrawMaintenance 76.779510498047
scalar OsgEarthNet.uav[48] utilizationCountMissions 19
scalar OsgEarthNet.uav[48] utilizationCountManeuversMission 224
scalar OsgEarthNet.uav[48] utilizationCountManeuversMaintenance 38
scalar OsgEarthNet.uav[48] utilizationCountChargeState 19
scalar OsgEarthNet.uav[48] utilizationCountOverdrawnAfterMission 1
scalar OsgEarthNet.uav[48] utilizationCountIdleState 19
scalar OsgEarthNet.uav[48] utilizationFail 0
scalar OsgEarthNet.uav[48] simulationTime 259200
scalar OsgEarthNet.uav[49] utilizationSecMission 22147.001081195
scalar OsgEarthNet.uav[49] utilizationSecMaintenance 22083.373181072
scalar OsgEarthNet.uav[49] utilizationSecCharge 163750
scalar OsgEarthNet.uav[49] utilizationSecIdle 51219.624737733
scalar OsgEarthNet.uav[49] utilizationEnergyMission 108852.78963089
scalar OsgEarthNet.uav[49] utilizationEnergyMaintenance 103216.83676529
scalar OsgEarthNet.uav[49] utilizationEnergyCharge 212570.23486328
scalar OsgEarthNet.uav[49] utilizationEnergyOverdrawMission 0
scalar OsgEarthNet.uav[49] utilizationEnergyOverdrawMaintenance 0
scalar OsgEarthNet.uav[49] utilizationCountMissions 51
scalar OsgEarthNet.uav[49] utilizationCountManeuversMission 753
scalar OsgEarthNet.uav[49] utilizationCountManeuversMaintenance 102
scalar OsgEarthNet.uav[49] utilizationCountChargeState 51
scalar OsgEarthNet.uav[49] utilizationCountOverdrawnAfterMission 0
scalar OsgEarthNet.uav[49] utilizationCountIdleState 51
scalar OsgEarthNet.uav[49] utilizationFail 0
scalar OsgEarthNet.uav[49] simulationTime 259200
scalar OsgEarthNet.uav[50] utilizationSecMission 26394.025040513
scalar OsgEarthNet.uav[50] utilizationSecMaintenance 25113.972959487
scalar OsgEarthNet.uav[50] utilizationSecCharge 185640
scalar OsgEarthNet.uav[50] utilizationSecIdle 22052.001
scalar OsgEarthNet.uav[50] utilizationEnergyMission 127164.60013817
scalar OsgEarthNet.uav[50] utilizationEnergyMaintenance 116344.19647598
scalar OsgEarthNet.uav[50] utilizationEnergyCharge 242120.01293945
scalar OsgEarthNet.uav[50] utilizationEnergyOverdrawMission 0
scalar OsgEarthNet.uav[50] utilizationEnergyOverdrawMaintenance 0
scalar OsgEarthNet.uav[50] utilizationCountMissions 57
scalar OsgEarthNet.uav[50] utilizationCountManeuversMission 777
scalar OsgEarthNet.uav[50] utilizationCountManeuversMaintenance 115
scalar OsgEarthNet.uav[50] utilizationCountChargeState 57
scalar OsgEarthNet.uav[50] utilizationCountOverdrawnAfterMission 0
scalar OsgEarthNet.uav[50] utilizationCountIdleState 58
scalar OsgEarthNet.uav[50] utilizationFail 0
scalar OsgEarthNet.uav[50] simulationTime 259200
scalar OsgEarthNet.uav[51] utilizationSecMission 22863.365922811
scalar OsgEarthNet.uav[51] utilizationSecMaintenance 22613.502718497
scalar OsgEarthNet.uav[51] utilizationSecCharge 165169.46318614
scalar OsgEarthNet.uav[51] utilizationSecIdle 48553.667172556
scalar OsgEarthNet.uav[51] utilizationEnergyMission 112676.31167603
scalar OsgEarthNet.uav[51] utilizationEnergyMaintenance 104462.93995667
scalar OsgEarthNet.uav[51] utilizationEnergyCharge 216690.08276367
scalar OsgEarthNet.uav[51] utilizationEnergyOverdrawMission 0
scalar OsgEarthNet.uav[51] utilizationEnergyOverdrawMaintenance 0
scalar OsgEarthNet.uav[51] utilizationCountMissions 51
scalar OsgEarthNet.uav[51] utilizationCountManeuversMission 709
scalar OsgEarthNet.uav[51] utilizationCountManeuversMaintenance 102
scalar OsgEarthNet.uav[51] utilizationCountChargeState 51
scalar OsgEarthNet.uav[51] utilizationCountOverdrawnAfterMission 0
scalar OsgEarthNet.uav[51] utilizationCountIdleState 51
scalar OsgEarthNet.uav[51] utilizationFail 0
scalar OsgEarthNet.uav[51] simulationTime 259200
scalar OsgEarthNet.uav[52] utilizationSecMission 23439.366651679
scalar OsgEarthNet.uav[52] utilizationSecMaintenance 23991.867606684
scalar OsgEarthNet.uav[52] utilizationSecCharge 173099.33939435
scalar OsgEarthNet.uav[52] utilizationSecIdle 38669.42534729
scalar OsgEarthNet.uav[52] utilizationEnergyMission 113776.46308136
scalar OsgEarthNet.uav[52] utilizationEnergyMaintenance 112371.26691055
scalar OsgEarthNet.uav[52] utilizationEnergyCharge 226027.15234375
scalar OsgEarthNet.uav[52] utilizationEnergyOverdrawMission 0
scalar OsgEarthNet.uav[52] utilizationEnergyOverdrawMaintenance 0
scalar OsgEarthNet.uav[52] utilizationCountMissions 53
scalar OsgEarthNet.uav[52] utilizationCountManeuversMission 700
scalar OsgEarthNet.uav[52] utilizationCountManeuversMaintenance 106
scalar OsgEarthNet.uav[52] utilizationCountChargeState 53
scalar OsgEarthNet.uav[52] utilizationCountOverdrawnAfterMission 0
scalar OsgEarthNet.uav[52] utilizationCountIdleState 53
scalar OsgEarthNet.uav[52] utilizationFail 0
scalar OsgEarthNet.uav[52] simulationTime 259200
scalar OsgEarthNet.uav[53] utilizationSecMission 15349.647920154
scalar OsgEarthNet.uav[53] utilizationSecMaintenance 16044.216133163
scalar OsgEarthNet.uav[53] utilizationSecCharge 113725.92521075
scalar OsgEarthNet.uav[53] utilizationSecIdle 114080.20973593
scalar OsgEarthNet.uav[53] utilizationEnergyMission 73753.675636292
scalar OsgEarthNet.uav[53] utilizationEnergyMaintenance 73880.257820129
scalar OsgEarthNet.uav[53] utilizationEnergyCharge 148553.82836914
scalar OsgEarthNet.uav[53] utilizationEnergyOverdrawMission 0
scalar OsgEarthNet.uav[53] utilizationEnergyOverdrawMaintenance 0
scalar OsgEarthNet.uav[53] utilizationCountMissions 35
scalar OsgEarthNet.uav[53] utilizationCountManeuversMission 474
scalar OsgEarthNet.uav[53] utilizationCountManeuversMaintenance 70
scalar OsgEarthNet.uav[53] utilizationCountChargeState 35
scalar OsgEarthNet.uav[53] utilizationCountOverdrawnAfterMission 0
scalar OsgEarthNet.uav[53] utilizationCountIdleState 35
scalar OsgEarthNet.uav[53] utilizationFail 0
scalar OsgEarthNet.uav[53] simulationTime 259200
scalar OsgEarthNet.uav[54] utilizationSecMission 27046.619949617
scalar OsgEarthNet.uav[54] utilizationSecMaintenance 24816.873260346
scalar OsgEarthNet.uav[54] utilizationSecCharge 186064.50479004
scalar OsgEarthNet.uav[54] utilizationSecIdle 21272.001
scalar OsgEarthNet.uav[54] utilizationEnergyMission 130233.69738388
scalar OsgEarthNet.uav[54] utilizationEnergyMaintenance 114553.29958725
scalar OsgEarthNet.uav[54] utilizationEnergyCharge 244036.79833984
scalar OsgEarthNet.uav[54] utilizationEnergyOverdrawMission 0
scalar OsgEarthNet.uav[54] utilizationEnergyOverdrawMaintenance 0
scalar OsgEarthNet.uav[54] utilizationCountMissions 58
scalar OsgEarthNet.uav[54] utilizationCountManeuversMission 792
scalar OsgEarthNet.uav[54] utilizationCountManeuversMaintenance 116
scalar OsgEarthNet.uav[54] utilizationCountChargeState 58
scalar OsgEarthNet.uav[54] utilizationCountOverdrawnAfterMission 0
scalar OsgEarthNet.uav[54] utilizationCountIdleState 56
scalar OsgEarthNet.uav[54] utilizationFail 0
scalar OsgEarthNet.uav[54] simulationTime 259200
scalar OsgEarthNet.uav[55] utilizationSecMission 12760.38991742
scalar OsgEarthNet.uav[55] utilizationSecMaintenance 14857.903394566
scalar OsgEarthNet.uav[55] utilizationSecCharge 100750
scalar OsgEarthNet.uav[55] utilizationSecIdle 130831.70568801
scalar OsgEarthNet.uav[55] utilizationEnergyMission 61850.090076653
scalar OsgEarthNet.uav[55] utilizationEnergyMaintenance 69190.370628357
scalar OsgEarthNet.uav[55] utilizationEnergyCharge 132214.53125
scalar OsgEarthNet.uav[55] utilizationEnergyOverdrawMission 0
scalar OsgEarthNet.uav[55] utilizationEnergyOverdrawMaintenance 0
scalar OsgEarthNet.uav[55] utilizationCountMissions 31
scalar OsgEarthNet.uav[55] utilizationCountManeuversMission 451
scalar OsgEarthNet.uav[55] utilizationCountManeuversMaintenance 61
scalar OsgEarthNet.uav[55] utilizationCountChargeState 31
scalar OsgEarthNet.uav[55] utilizationCountOverdrawnAfterMission 0
scalar OsgEarthNet.uav[55] utilizationCountIdleState 29
scalar OsgEarthNet.uav[55] utilizationFail 0
scalar OsgEarthNet.uav[55] simulationTime 259200
scalar OsgEarthNet.uav[56] utilizationSecMission 20468.197258657
scalar OsgEarthNet.uav[56] utilizationSecMaintenance 21984.6244703
scalar OsgEarthNet.uav[56] utilizationSecCharge 153180
scalar OsgEarthNet.uav[56] utilizationSecIdle 63567.177271042
scalar OsgEarthNet.uav[56] utilizationEnergyMission 98360.501171112
scalar OsgEarthNet.uav[56] utilizationEnergyMaintenance 102522.2146225
scalar OsgEarthNet.uav[56] utilizationEnergyCharge 200691.66113281
scalar OsgEarthNet.uav[56] utilizationEnergyOverdrawMission 0
scalar OsgEarthNet.uav[56] utilizationEnergyOverdrawMaintenance 151.28244018555
scalar OsgEarthNet.uav[56] utilizationCountMissions 47
scalar OsgEarthNet.uav[56] utilizationCountManeuversMission 585
scalar OsgEarthNet.uav[56] utilizationCountManeuversMaintenance 94
scalar OsgEarthNet.uav[56] utilizationCountChargeState 47
scalar OsgEarthNet.uav[56] utilizationCountOverdrawnAfterMission 1
scalar OsgEarthNet.uav[56] utilizationCountIdleState 45
scalar OsgEarthNet.uav[56] utilizationFail 0
scalar OsgEarthNet.uav[56] simulationTime 259200
scalar OsgEarthNet.uav[57] utilizationSecMission 21344.706864213
scalar OsgEarthNet.uav[57] utilizationSecMaintenance 21772.979259828
scalar OsgEarthNet.uav[57] utilizationSecCharge 155640
scalar OsgEarthNet.uav[57] utilizationSecIdle 60442.31287596
scalar OsgEarthNet.uav[57] utilizationEnergyMission 101568.01319504
scalar OsgEarthNet.uav[57] utilizationEnergyMaintenance 101495.57638931
scalar OsgEarthNet.uav[57] utilizationEnergyCharge 203169.29223633
scalar OsgEarthNet.uav[57] utilizationEnergyOverdrawMission 0
scalar OsgEarthNet.uav[57] utilizationEnergyOverdrawMaintenance 0
scalar OsgEarthNet.uav[57] utilizationCountMissions 48
scalar OsgEarthNet.uav[57] utilizationCountManeuversMission 614
scalar OsgEarthNet.uav[57] utilizationCountManeuversMaintenance 96
scalar OsgEarthNet.uav[57] utilizationCountChargeState 48
scalar OsgEarthNet.uav[57] utilizationCountOverdrawnAfterMission 0
scalar OsgEarthNet.uav[57] utilizationCountIdleState 48
scalar OsgEarthNet.uav[57] utilizationFail 0
scalar OsgEarthNet.uav[57] simulationTime 259200
scalar OsgEarthNet.uav[58] utilizationSecMission 14859.895230526
scalar OsgEarthNet.uav[58] utilizationSecMaintenance 18447.636492659
scalar OsgEarthNet.uav[58] utilizationSecCharge 119890
scalar OsgEarthNet.uav[58] utilizationSecIdle 106002.46727681
scalar OsgEarthNet.uav[58] utilizationEnergyMission 72190.153575897
scalar OsgEarthNet.uav[58] utilizationEnergyMaintenance 86902.094863892
scalar OsgEarthNet.uav[58] utilizationEnergyCharge 158016.12280273
scalar OsgEarthNet.uav[58] utilizationEnergyOverdrawMission 0
scalar OsgEarthNet.uav[58] utilizationEnergyOverdrawMaintenance 122.94106292725
scalar OsgEarthNet.uav[58] utilizationCountMissions 37
scalar OsgEarthNet.uav[58] utilizationCountManeuversMission 468
scalar OsgEarthNet.uav[58] utilizationCountManeuversMaintenance 74
scalar OsgEarthNet.uav[58] utilizationCountChargeState 37
scalar OsgEarthNet.uav[58] utilizationCountOverdrawnAfterMission 1
scalar OsgEarthNet.uav[58] utilizationCountIdleState 32
scalar OsgEarthNet.uav[58] utilizationFail 0
scalar OsgEarthNet.uav[58] simulationTime 259200
scalar OsgEarthNet.uav[59] utilizationSecMission 17665.478460437
scalar OsgEarthNet.uav[59] utilizationSecMaintenance 16544.68976841
scalar OsgEarthNet.uav[59] utilizationSecCharge 123020
scalar OsgEarthNet.uav[59] utilizationSecIdle 101969.83077115
scalar OsgEarthNet.uav[59] utilizationEnergyMission 85652.085109711
scalar OsgEarthNet.uav[59] utilizationEnergyMaintenance 75945.957618713
scalar OsgEarthNet.uav[59] utilizationEnergyCharge 160870.8671875
scalar OsgEarthNet.uav[59] utilizationEnergyOverdrawMission 0
scalar OsgEarthNet.uav[59] utilizationEnergyOverdrawMaintenance 0
scalar OsgEarthNet.uav[59] utilizationCountMissions 38
scalar OsgEarthNet.uav[59] utilizationCountManeuversMission 530
scalar OsgEarthNet.uav[59] utilizationCountManeuversMaintenance 76
scalar OsgEarthNet.uav[59] utilizationCountChargeState 38
scalar OsgEarthNet.uav[59] utilizationCountOverdrawnAfterMission 0
scalar OsgEarthNet.uav[59] utilizationCountIdleState 33
scalar OsgEarthNet.uav[59] utilizationFail 0
scalar OsgEarthNet.uav[59] simulationTime 259200
scalar OsgEarthNet.uav[60] utilizationSecMission 20592.51557587
scalar OsgEarthNet.uav[60] utilizationSecMaintenance 20449.613224789
scalar OsgEarthNet.uav[60] utilizationSecCharge 147820
scalar OsgEarthNet.uav[60] utilizationSecIdle 70337.870199341
scalar OsgEarthNet.uav[60] utilizationEnergyMission 97054.544776917
scalar OsgEarthNet.uav[60] utilizationEnergyMaintenance 95399.463222504
scalar OsgEarthNet.uav[60] utilizationEnergyCharge 193680.11425781
scalar OsgEarthNet.uav[60] utilizationEnergyOverdrawMission 0
scalar OsgEarthNet.uav[60] utilizationEnergyOverdrawMaintenance 0
scalar OsgEarthNet.uav[60] utilizationCountMissions 45
scalar OsgEarthNet.uav[60] utilizationCountManeuversMission 533
scalar OsgEarthNet.uav[60] utilizationCountManeuversMaintenance 90
scalar OsgEarthNet.uav[60] utilizationCountChargeState 45
scalar OsgEarthNet.uav[60] utilizationCountOverdrawnAfterMission 0
scalar OsgEarthNet.uav[60] utilizationCountIdleState 40
scalar OsgEarthNet.uav[60] utilizationFail 0
scalar OsgEarthNet.uav[60] simulationTime 259200
scalar OsgEarthNet.uav[61] utilizationSecMission 24352.222048454
scalar OsgEarthNet.uav[61] utilizationSecMaintenance 26251.270345744
scalar OsgEarthNet.uav[61] utilizationSecCharge 185349.57808597
scalar OsgEarthNet.uav[61] utilizationSecIdle 23246.928519834
scalar OsgEarthNet.uav[61] utilizationEnergyMission 121170.24080276
scalar OsgEarthNet.uav[61] utilizationEnergyMaintenance 121405.85967255
scalar OsgEarthNet.uav[61] utilizationEnergyCharge 241790.96508789
scalar OsgEarthNet.uav[61] utilizationEnergyOverdrawMission 0
scalar OsgEarthNet.uav[61] utilizationEnergyOverdrawMaintenance 88.441734313965
scalar OsgEarthNet.uav[61] utilizationCountMissions 58
scalar OsgEarthNet.uav[61] utilizationCountManeuversMission 810
scalar OsgEarthNet.uav[61] utilizationCountManeuversMaintenance 116
scalar OsgEarthNet.uav[61] utilizationCountChargeState 58
scalar OsgEarthNet.uav[61] utilizationCountOverdrawnAfterMission 1
scalar OsgEarthNet.uav[61] utilizationCountIdleState 56
scalar OsgEarthNet.uav[61] utilizationFail 0
scalar OsgEarthNet.uav[61] simulationTime 259200
scalar OsgEarthNet.uav[62] utilizationSecMission 25002.893455862
scalar OsgEarthNet.uav[62] utilizationSecMaintenance 23937.885930222
scalar OsgEarthNet.uav[62] utilizationSecCharge 174980
scalar OsgEarthNet.uav[62] utilizationSecIdle 35279.219613916
scalar OsgEarthNet.uav[62] utilizationEnergyMission 121894.96714401
scalar OsgEarthNet.uav[62] utilizationEnergyMaintenance 112570.14894609
scalar OsgEarthNet.uav[62] utilizationEnergyCharge 228559.58447266
scalar OsgEarthNet.uav[62] utilizationEnergyOverdrawMission 0
scalar OsgEarthNet.uav[62] utilizationEnergyOverdrawMaintenance 25.128395080566
scalar OsgEarthNet.uav[62] utilizationCountMissions 54
scalar OsgEarthNet.uav[62] utilizationCountManeuversMission 764
scalar OsgEarthNet.uav[62] utilizationCountManeuversMaintenance 109
scalar OsgEarthNet.uav[62] utilizationCountChargeState 54
scalar OsgEarthNet.uav[62] utilizationCountOverdrawnAfterMission 1
scalar OsgEarthNet.uav[62] utilizationCountIdleState 53
scalar OsgEarthNet.uav[62] utilizationFail 0
scalar OsgEarthNet.uav[62] simulationTime 259200
scalar OsgEarthNet.uav[63] utilizationSecMission 19925.402923528
scalar OsgEarthNet.uav[63] utilizationSecMaintenance 22741.646846784
scalar OsgEarthNet.uav[63] utilizationSecCharge 153680
scalar OsgEarthNet.uav[63] utilizationSecIdle 62852.949229688
scalar OsgEarthNet.uav[63] utilizationEnergyMission 97098.953891754
scalar OsgEarthNet.uav[63] utilizationEnergyMaintenance 104890.81899643
scalar OsgEarthNet.uav[63] utilizationEnergyCharge 201008.42138672
scalar OsgEarthNet.uav[63] utilizationEnergyOverdrawMission 0
scalar OsgEarthNet.uav[63] utilizationEnergyOverdrawMaintenance 0
scalar OsgEarthNet.uav[63] utilizationCountMissions 48
scalar OsgEarthNet.uav[63] utilizationCountManeuversMission 627
scalar OsgEarthNet.uav[63] utilizationCountManeuversMaintenance 96
scalar OsgEarthNet.uav[63] utilizationCountChargeState 48
scalar OsgEarthNet.uav[63] utilizationCountOverdrawnAfterMission 0
scalar OsgEarthNet.uav[63] utilizationCountIdleState 41
scalar OsgEarthNet.uav[63] utilizationFail 0
scalar OsgEarthNet.uav[63] simulationTime 259200
scalar OsgEarthNet.uav[64] utilizationSecMission 21298.942431815
scalar OsgEarthNet.uav[64] utilizationSecMaintenance 25919.054568185
scalar OsgEarthNet.uav[64] utilizationSecCharge 170240
scalar OsgEarthNet.uav[64] utilizationSecIdle 41742.002
scalar OsgEarthNet.uav[64] utilizationEnergyMission 101386.62275314
scalar OsgEarthNet.uav[64] utilizationEnergyMaintenance 121873.25923594
scalar OsgEarthNet.uav[64] utilizationEnergyCharge 223285.34570312
scalar OsgEarthNet.uav[64] utilizationEnergyOverdrawMission 0
scalar OsgEarthNet.uav[64] utilizationEnergyOverdrawMaintenance 0
scalar OsgEarthNet.uav[64] utilizationCountMissions 53
scalar OsgEarthNet.uav[64] utilizationCountManeuversMission 661
scalar OsgEarthNet.uav[64] utilizationCountManeuversMaintenance 107
scalar OsgEarthNet.uav[64] utilizationCountChargeState 53
scalar OsgEarthNet.uav[64] utilizationCountOverdrawnAfterMission 0
scalar OsgEarthNet.uav[64] utilizationCountIdleState 43
scalar OsgEarthNet.uav[64] utilizationFail 0
scalar OsgEarthNet.uav[64] simulationTime 259200
scalar OsgEarthNet.uav[65] utilizationSecMission 22404.670588925
scalar OsgEarthNet.uav[65] utilizationSecMaintenance 24593.321411075
scalar OsgEarthNet.uav[65] utilizationSecCharge 166930
scalar OsgEarthNet.uav[65] utilizationSecIdle 45272.007
scalar OsgEarthNet.uav[65] utilizationEnergyMission 108559.59276199
scalar OsgEarthNet.uav[65] utilizationEnergyMaintenance 114765.63359767
scalar OsgEarthNet.uav[65] utilizationEnergyCharge 218310.19824219
scalar OsgEarthNet.uav[65] utilizationEnergyOverdrawMission 0
[...]
scalar OsgEarthNet.uav[81] utilizationCountManeuversMission 794
scalar OsgEarthNet.uav[81] utilizationCountManeuversMaintenance 122
scalar OsgEarthNet.uav[81] utilizationCountChargeState 61
scalar OsgEarthNet.uav[81] utilizationCountOverdrawnAfterMission 0
scalar OsgEarthNet.uav[81] utilizationCountIdleState 26
scalar OsgEarthNet.uav[81] utilizationFail 0
scalar OsgEarthNet.uav[81] simulationTime 259200
scalar OsgEarthNet.uav[82] utilizationSecMission 26079.837491931
scalar OsgEarthNet.uav[82] utilizationSecMaintenance 28342.158896151
scalar OsgEarthNet.uav[82] utilizationSecCharge 193316.00161192
scalar OsgEarthNet.uav[82] utilizationSecIdle 11462.001
scalar OsgEarthNet.uav[82] utilizationEnergyMission 127479.2146759
scalar OsgEarthNet.uav[82] utilizationEnergyMaintenance 132417.15749359
scalar OsgEarthNet.uav[82] utilizationEnergyCharge 257543.68603516
scalar OsgEarthNet.uav[82] utilizationEnergyOverdrawMission 0
scalar OsgEarthNet.uav[82] utilizationEnergyOverdrawMaintenance 0
scalar OsgEarthNet.uav[82] utilizationCountMissions 62
scalar OsgEarthNet.uav[82] utilizationCountManeuversMission 836
scalar OsgEarthNet.uav[82] utilizationCountManeuversMaintenance 124
scalar OsgEarthNet.uav[82] utilizationCountChargeState 62
scalar OsgEarthNet.uav[82] utilizationCountOverdrawnAfterMission 0
scalar OsgEarthNet.uav[82] utilizationCountIdleState 29
scalar OsgEarthNet.uav[82] utilizationFail 0
scalar OsgEarthNet.uav[82] simulationTime 259200
scalar OsgEarthNet.uav[83] utilizationSecMission 26243.312684646
scalar OsgEarthNet.uav[83] utilizationSecMaintenance 29089.729245307
scalar OsgEarthNet.uav[83] utilizationSecCharge 195912.59670492
scalar OsgEarthNet.uav[83] utilizationSecIdle 7954.360365127
scalar OsgEarthNet.uav[83] utilizationEnergyMission 126992.47887421
scalar OsgEarthNet.uav[83] utilizationEnergyMaintenance 135916.21767426
scalar OsgEarthNet.uav[83] utilizationEnergyCharge 263402.93554688
scalar OsgEarthNet.uav[83] utilizationEnergyOverdrawMission 0
scalar OsgEarthNet.uav[83] utilizationEnergyOverdrawMaintenance 0
scalar OsgEarthNet.uav[83] utilizationCountMissions 62
scalar OsgEarthNet.uav[83] utilizationCountManeuversMission 855
scalar OsgEarthNet.uav[83] utilizationCountManeuversMaintenance 124
scalar OsgEarthNet.uav[83] utilizationCountChargeState 62
scalar OsgEarthNet.uav[83] utilizationCountOverdrawnAfterMission 0
scalar OsgEarthNet.uav[83] utilizationCountIdleState 28
scalar OsgEarthNet.uav[83] utilizationFail 0
scalar OsgEarthNet.uav[83] simulationTime 259200
scalar OsgEarthNet.uav[84] utilizationSecMission 27038.334336117
scalar OsgEarthNet.uav[84] utilizationSecMaintenance 29045.619799881
scalar OsgEarthNet.uav[84] utilizationSecCharge 193954.037864
scalar OsgEarthNet.uav[84] utilizationSecIdle 9162.007
scalar OsgEarthNet.uav[84] utilizationEnergyMission 129101.31223297
scalar OsgEarthNet.uav[84] utilizationEnergyMaintenance 135709.98683548
scalar OsgEarthNet.uav[84] utilizationEnergyCharge 263331.46240234
scalar OsgEarthNet.uav[84] utilizationEnergyOverdrawMission 0
scalar OsgEarthNet.uav[84] utilizationEnergyOverdrawMaintenance 172.93730163574
scalar OsgEarthNet.uav[84] utilizationCountMissions 62
scalar OsgEarthNet.uav[84] utilizationCountManeuversMission 738
scalar OsgEarthNet.uav[84] utilizationCountManeuversMaintenance 124
scalar OsgEarthNet.uav[84] utilizationCountChargeState 62
scalar OsgEarthNet.uav[84] utilizationCountOverdrawnAfterMission 1
scalar OsgEarthNet.uav[84] utilizationCountIdleState 23
scalar OsgEarthNet.uav[84] utilizationFail 0
scalar OsgEarthNet.uav[84] simulationTime 259200
scalar OsgEarthNet.uav[85] utilizationSecMission 27181.375365623
scalar OsgEarthNet.uav[85] utilizationSecMaintenance 28312.273413555
scalar OsgEarthNet.uav[85] utilizationSecCharge 194470
scalar OsgEarthNet.uav[85] utilizationSecIdle 9236.3502208215
scalar OsgEarthNet.uav[85] utilizationEnergyMission 133002.69464765
scalar OsgEarthNet.uav[85] utilizationEnergyMaintenance 132903.49861908
scalar OsgEarthNet.uav[85] utilizationEnergyCharge 262476.02978516
scalar OsgEarthNet.uav[85] utilizationEnergyOverdrawMission 0
scalar OsgEarthNet.uav[85] utilizationEnergyOverdrawMaintenance 0
scalar OsgEarthNet.uav[85] utilizationCountMissions 62
scalar OsgEarthNet.uav[85] utilizationCountManeuversMission 799
scalar OsgEarthNet.uav[85] utilizationCountManeuversMaintenance 125
scalar OsgEarthNet.uav[85] utilizationCountChargeState 62
scalar OsgEarthNet.uav[85] utilizationCountOverdrawnAfterMission 0
scalar OsgEarthNet.uav[85] utilizationCountIdleState 23
scalar OsgEarthNet.uav[85] utilizationFail 0
scalar OsgEarthNet.uav[85] simulationTime 259200
scalar OsgEarthNet.uav[86] utilizationSecMission 26088.552320444
scalar OsgEarthNet.uav[86] utilizationSecMaintenance 29423.388144932
scalar OsgEarthNet.uav[86] utilizationSecCharge 192960.49404747
scalar OsgEarthNet.uav[86] utilizationSecIdle 10727.564487159
scalar OsgEarthNet.uav[86] utilizationEnergyMission 127010.09405136
scalar OsgEarthNet.uav[86] utilizationEnergyMaintenance 134936.24375916
scalar OsgEarthNet.uav[86] utilizationEnergyCharge 259852.42285156
scalar OsgEarthNet.uav[86] utilizationEnergyOverdrawMission 0
scalar OsgEarthNet.uav[86] utilizationEnergyOverdrawMaintenance 165.89016723633
scalar OsgEarthNet.uav[86] utilizationCountMissions 62
scalar OsgEarthNet.uav[86] utilizationCountManeuversMission 831
scalar OsgEarthNet.uav[86] utilizationCountManeuversMaintenance 124
scalar OsgEarthNet.uav[86] utilizationCountChargeState 62
scalar OsgEarthNet.uav[86] utilizationCountOverdrawnAfterMission 1
scalar OsgEarthNet.uav[86] utilizationCountIdleState 24
scalar OsgEarthNet.uav[86] utilizationFail 0
scalar OsgEarthNet.uav[86] simulationTime 259200
scalar OsgEarthNet.uav[87] utilizationSecMission 27123.378776035
scalar OsgEarthNet.uav[87] utilizationSecMaintenance 28988.72067641
scalar OsgEarthNet.uav[87] utilizationSecCharge 193715.88954755
scalar OsgEarthNet.uav[87] utilizationSecIdle 9372.01
scalar OsgEarthNet.uav[87] utilizationEnergyMission 128691.10497665
scalar OsgEarthNet.uav[87] utilizationEnergyMaintenance 134916.12975311
scalar OsgEarthNet.uav[87] utilizationEnergyCharge 262110.8059082
scalar OsgEarthNet.uav[87] utilizationEnergyOverdrawMission 0
scalar OsgEarthNet.uav[87] utilizationEnergyOverdrawMaintenance 0
scalar OsgEarthNet.uav[87] utilizationCountMissions 62
scalar OsgEarthNet.uav[87] utilizationCountManeuversMission 772
scalar OsgEarthNet.uav[87] utilizationCountManeuversMaintenance 124
scalar OsgEarthNet.uav[87] utilizationCountChargeState 62
scalar OsgEarthNet.uav[87] utilizationCountOverdrawnAfterMission 0
scalar OsgEarthNet.uav[87] utilizationCountIdleState 22
scalar OsgEarthNet.uav[87] utilizationFail 0
scalar OsgEarthNet.uav[87] simulationTime 259200
scalar OsgEarthNet.uav[88] utilizationSecMission 27840.356744891
scalar OsgEarthNet.uav[88] utilizationSecMaintenance 28677.236761795
scalar OsgEarthNet.uav[88] utilizationSecCharge 194206.65678811
scalar OsgEarthNet.uav[88] utilizationSecIdle 8475.7487052071
scalar OsgEarthNet.uav[88] utilizationEnergyMission 134073.18300247
scalar OsgEarthNet.uav[88] utilizationEnergyMaintenance 133113.13600922
scalar OsgEarthNet.uav[88] utilizationEnergyCharge 262220.44671631
scalar OsgEarthNet.uav[88] utilizationEnergyOverdrawMission 0
scalar OsgEarthNet.uav[88] utilizationEnergyOverdrawMaintenance 0
scalar OsgEarthNet.uav[88] utilizationCountMissions 63
scalar OsgEarthNet.uav[88] utilizationCountManeuversMission 821
scalar OsgEarthNet.uav[88] utilizationCountManeuversMaintenance 126
scalar OsgEarthNet.uav[88] utilizationCountChargeState 63
scalar OsgEarthNet.uav[88] utilizationCountOverdrawnAfterMission 0
scalar OsgEarthNet.uav[88] utilizationCountIdleState 27
scalar OsgEarthNet.uav[88] utilizationFail 0
scalar OsgEarthNet.uav[88] simulationTime 259200
scalar OsgEarthNet.uav[89] utilizationSecMission 25407.485963383
scalar OsgEarthNet.uav[89] utilizationSecMaintenance 30986.851906634
scalar OsgEarthNet.uav[89] utilizationSecCharge 194139.76339415
scalar OsgEarthNet.uav[89] utilizationSecIdle 8665.8977358347
scalar OsgEarthNet.uav[89] utilizationEnergyMission 123879.89117813
scalar OsgEarthNet.uav[89] utilizationEnergyMaintenance 143640.73413467
scalar OsgEarthNet.uav[89] utilizationEnergyCharge 266202.70043945
scalar OsgEarthNet.uav[89] utilizationEnergyOverdrawMission 0
scalar OsgEarthNet.uav[89] utilizationEnergyOverdrawMaintenance 0
scalar OsgEarthNet.uav[89] utilizationCountMissions 63
scalar OsgEarthNet.uav[89] utilizationCountManeuversMission 790
scalar OsgEarthNet.uav[89] utilizationCountManeuversMaintenance 126
scalar OsgEarthNet.uav[89] utilizationCountChargeState 63
scalar OsgEarthNet.uav[89] utilizationCountOverdrawnAfterMission 0
scalar OsgEarthNet.uav[89] utilizationCountIdleState 14
scalar OsgEarthNet.uav[89] utilizationFail 0
scalar OsgEarthNet.uav[89] simulationTime 259200
scalar OsgEarthNet.uav[90] utilizationSecMission 27728.23429205
scalar OsgEarthNet.uav[90] utilizationSecMaintenance 28540.35930309
scalar OsgEarthNet.uav[90] utilizationSecCharge 193762.6060969
scalar OsgEarthNet.uav[90] utilizationSecIdle 9168.7993079634
scalar OsgEarthNet.uav[90] utilizationEnergyMission 134226.05299377
scalar OsgEarthNet.uav[90] utilizationEnergyMaintenance 133233.35871506
scalar OsgEarthNet.uav[90] utilizationEnergyCharge 263179.38592529
scalar OsgEarthNet.uav[90] utilizationEnergyOverdrawMission 0
scalar OsgEarthNet.uav[90] utilizationEnergyOverdrawMaintenance 0
scalar OsgEarthNet.uav[90] utilizationCountMissions 64
scalar OsgEarthNet.uav[90] utilizationCountManeuversMission 906
scalar OsgEarthNet.uav[90] utilizationCountManeuversMaintenance 128
scalar OsgEarthNet.uav[90] utilizationCountChargeState 64
scalar OsgEarthNet.uav[90] utilizationCountOverdrawnAfterMission 0
scalar OsgEarthNet.uav[90] utilizationCountIdleState 20
scalar OsgEarthNet.uav[90] utilizationFail 0
scalar OsgEarthNet.uav[90] simulationTime 259200
scalar OsgEarthNet.uav[91] utilizationSecMission 26575.244986706
scalar OsgEarthNet.uav[91] utilizationSecMaintenance 28926.133700356
scalar OsgEarthNet.uav[91] utilizationSecCharge 193664.22411654
scalar OsgEarthNet.uav[91] utilizationSecIdle 10034.396196402
scalar OsgEarthNet.uav[91] utilizationEnergyMission 127668.18401337
scalar OsgEarthNet.uav[91] utilizationEnergyMaintenance 133939.58572388
scalar OsgEarthNet.uav[91] utilizationEnergyCharge 261224.97216797
scalar OsgEarthNet.uav[91] utilizationEnergyOverdrawMission 0
scalar OsgEarthNet.uav[91] utilizationEnergyOverdrawMaintenance 105.47919464111
scalar OsgEarthNet.uav[91] utilizationCountMissions 62
scalar OsgEarthNet.uav[91] utilizationCountManeuversMission 783
scalar OsgEarthNet.uav[91] utilizationCountManeuversMaintenance 124
scalar OsgEarthNet.uav[91] utilizationCountChargeState 62
scalar OsgEarthNet.uav[91] utilizationCountOverdrawnAfterMission 1
scalar OsgEarthNet.uav[91] utilizationCountIdleState 24
scalar OsgEarthNet.uav[91] utilizationFail 0
scalar OsgEarthNet.uav[91] simulationTime 259200
scalar OsgEarthNet.uav[92] utilizationSecMission 26470.402528119
scalar OsgEarthNet.uav[92] utilizationSecMaintenance 29883.889269636
scalar OsgEarthNet.uav[92] utilizationSecCharge 197630
scalar OsgEarthNet.uav[92] utilizationSecIdle 5215.7072022446
scalar OsgEarthNet.uav[92] utilizationEnergyMission 127519.37750244
scalar OsgEarthNet.uav[92] utilizationEnergyMaintenance 138858.45642471
scalar OsgEarthNet.uav[92] utilizationEnergyCharge 267170.74511719
scalar OsgEarthNet.uav[92] utilizationEnergyOverdrawMission 0
scalar OsgEarthNet.uav[92] utilizationEnergyOverdrawMaintenance 0
scalar OsgEarthNet.uav[92] utilizationCountMissions 63
scalar OsgEarthNet.uav[92] utilizationCountManeuversMission 781
scalar OsgEarthNet.uav[92] utilizationCountManeuversMaintenance 126
scalar OsgEarthNet.uav[92] utilizationCountChargeState 63
scalar OsgEarthNet.uav[92] utilizationCountOverdrawnAfterMission 0
scalar OsgEarthNet.uav[92] utilizationCountIdleState 19
scalar OsgEarthNet.uav[92] utilizationFail 0
scalar OsgEarthNet.uav[92] simulationTime 259200
scalar OsgEarthNet.uav[93] utilizationSecMission 27395.705605839
scalar OsgEarthNet.uav[93] utilizationSecMaintenance 28439.296329629
scalar OsgEarthNet.uav[93] utilizationSecCharge 193666.93818507
scalar OsgEarthNet.uav[93] utilizationSecIdle 9698.0588794618
scalar OsgEarthNet.uav[93] utilizationEnergyMission 134252.20867157
scalar OsgEarthNet.uav[93] utilizationEnergyMaintenance 131349.68316269
scalar OsgEarthNet.uav[93] utilizationEnergyCharge 260245.84460449
scalar OsgEarthNet.uav[93] utilizationEnergyOverdrawMission 0
scalar OsgEarthNet.uav[93] utilizationEnergyOverdrawMaintenance 0
scalar OsgEarthNet.uav[93] utilizationCountMissions 62
scalar OsgEarthNet.uav[93] utilizationCountManeuversMission 833
scalar OsgEarthNet.uav[93] utilizationCountManeuversMaintenance 124
scalar OsgEarthNet.uav[93] utilizationCountChargeState 62
scalar OsgEarthNet.uav[93] utilizationCountOverdrawnAfterMission 0
scalar OsgEarthNet.uav[93] utilizationCountIdleState 23
scalar OsgEarthNet.uav[93] utilizationFail 0
scalar OsgEarthNet.uav[93] simulationTime 259200
scalar OsgEarthNet.uav[94] utilizationSecMission 25187.756555536
scalar OsgEarthNet.uav[94] utilizationSecMaintenance 30630.236444464
scalar OsgEarthNet.uav[94] utilizationSecCharge 196670
scalar OsgEarthNet.uav[94] utilizationSecIdle 6712.006
scalar OsgEarthNet.uav[94] utilizationEnergyMission 124337.41358185
scalar OsgEarthNet.uav[94] utilizationEnergyMaintenance 143094.59448476
scalar OsgEarthNet.uav[94] utilizationEnergyCharge 266488.6262207
scalar OsgEarthNet.uav[94] utilizationEnergyOverdrawMission 0
scalar OsgEarthNet.uav[94] utilizationEnergyOverdrawMaintenance 0
scalar OsgEarthNet.uav[94] utilizationCountMissions 64
scalar OsgEarthNet.uav[94] utilizationCountManeuversMission 864
scalar OsgEarthNet.uav[94] utilizationCountManeuversMaintenance 129
scalar OsgEarthNet.uav[94] utilizationCountChargeState 64
scalar OsgEarthNet.uav[94] utilizationCountOverdrawnAfterMission 0
scalar OsgEarthNet.uav[94] utilizationCountIdleState 19
scalar OsgEarthNet.uav[94] utilizationFail 0
scalar OsgEarthNet.uav[94] simulationTime 259200
scalar OsgEarthNet.uav[95] utilizationSecMission 25165.767298498
scalar OsgEarthNet.uav[95] utilizationSecMaintenance 32342.226701502
scalar OsgEarthNet.uav[95] utilizationSecCharge 196500
scalar OsgEarthNet.uav[95] utilizationSecIdle 5192.005
scalar OsgEarthNet.uav[95] utilizationEnergyMission 123699.22269678
scalar OsgEarthNet.uav[95] utilizationEnergyMaintenance 148527.06309128
scalar OsgEarthNet.uav[95] utilizationEnergyCharge 269381.06738281
scalar OsgEarthNet.uav[95] utilizationEnergyOverdrawMission 0
scalar OsgEarthNet.uav[95] utilizationEnergyOverdrawMaintenance 157.53701782227
scalar OsgEarthNet.uav[95] utilizationCountMissions 63
scalar OsgEarthNet.uav[95] utilizationCountManeuversMission 806
scalar OsgEarthNet.uav[95] utilizationCountManeuversMaintenance 127
scalar OsgEarthNet.uav[95] utilizationCountChargeState 63
scalar OsgEarthNet.uav[95] utilizationCountOverdrawnAfterMission 1
scalar OsgEarthNet.uav[95] utilizationCountIdleState 14
scalar OsgEarthNet.uav[95] utilizationFail 0
scalar OsgEarthNet.uav[95] simulationTime 259200
scalar OsgEarthNet.uav[96] utilizationSecMission 27660.134625519
scalar OsgEarthNet.uav[96] utilizationSecMaintenance 28805.935255955
scalar OsgEarthNet.uav[96] utilizationSecCharge 197347.907516
scalar OsgEarthNet.uav[96] utilizationSecIdle 5386.0216025259
scalar OsgEarthNet.uav[96] utilizationEnergyMission 134032.40160751
scalar OsgEarthNet.uav[96] utilizationEnergyMaintenance 134331.14651108
scalar OsgEarthNet.uav[96] utilizationEnergyCharge 265770.86315918
scalar OsgEarthNet.uav[96] utilizationEnergyOverdrawMission 0
scalar OsgEarthNet.uav[96] utilizationEnergyOverdrawMaintenance 0
scalar OsgEarthNet.uav[96] utilizationCountMissions 65
scalar OsgEarthNet.uav[96] utilizationCountManeuversMission 906
scalar OsgEarthNet.uav[96] utilizationCountManeuversMaintenance 130
scalar OsgEarthNet.uav[96] utilizationCountChargeState 65
scalar OsgEarthNet.uav[96] utilizationCountOverdrawnAfterMission 0
scalar OsgEarthNet.uav[96] utilizationCountIdleState 19
scalar OsgEarthNet.uav[96] utilizationFail 0
scalar OsgEarthNet.uav[96] simulationTime 259200
scalar OsgEarthNet.uav[97] utilizationSecMission 23686.283446896
scalar OsgEarthNet.uav[97] utilizationSecMaintenance 34354.0168318
scalar OsgEarthNet.uav[97] utilizationSecCharge 196595.86513591
scalar OsgEarthNet.uav[97] utilizationSecIdle 4563.8335853944
scalar OsgEarthNet.uav[97] utilizationEnergyMission 114543.93134689
scalar OsgEarthNet.uav[97] utilizationEnergyMaintenance 161747.39931869
scalar OsgEarthNet.uav[97] utilizationEnergyCharge 269621.62359619
scalar OsgEarthNet.uav[97] utilizationEnergyOverdrawMission 0
scalar OsgEarthNet.uav[97] utilizationEnergyOverdrawMaintenance 0
scalar OsgEarthNet.uav[97] utilizationCountMissions 65
scalar OsgEarthNet.uav[97] utilizationCountManeuversMission 765
scalar OsgEarthNet.uav[97] utilizationCountManeuversMaintenance 130
scalar OsgEarthNet.uav[97] utilizationCountChargeState 65
scalar OsgEarthNet.uav[97] utilizationCountOverdrawnAfterMission 0
scalar OsgEarthNet.uav[97] utilizationCountIdleState 11
scalar OsgEarthNet.uav[97] utilizationFail 0
scalar OsgEarthNet.uav[97] simulationTime 259200
scalar OsgEarthNet.uav[98] utilizationSecMission 26328.641620283
scalar OsgEarthNet.uav[98] utilizationSecMaintenance 30743.972052745
scalar OsgEarthNet.uav[98] utilizationSecCharge 195847.13705388
scalar OsgEarthNet.uav[98] utilizationSecIdle 6280.2482730936
scalar OsgEarthNet.uav[98] utilizationEnergyMission 125980.50112152
scalar OsgEarthNet.uav[98] utilizationEnergyMaintenance 142395.246315
scalar OsgEarthNet.uav[98] utilizationEnergyCharge 266406.89587402
scalar OsgEarthNet.uav[98] utilizationEnergyOverdrawMission 0
scalar OsgEarthNet.uav[98] utilizationEnergyOverdrawMaintenance 0
scalar OsgEarthNet.uav[98] utilizationCountMissions 64
scalar OsgEarthNet.uav[98] utilizationCountManeuversMission 789
scalar OsgEarthNet.uav[98] utilizationCountManeuversMaintenance 128
scalar OsgEarthNet.uav[98] utilizationCountChargeState 64
scalar OsgEarthNet.uav[98] utilizationCountOverdrawnAfterMission 0
scalar OsgEarthNet.uav[98] utilizationCountIdleState 20
scalar OsgEarthNet.uav[98] utilizationFail 0
scalar OsgEarthNet.uav[98] simulationTime 259200
scalar OsgEarthNet.uav[99] utilizationSecMission 25680.718838119
scalar OsgEarthNet.uav[99] utilizationSecMaintenance 31075.166231317
scalar OsgEarthNet.uav[99] utilizationSecCharge 195619.62563677
scalar OsgEarthNet.uav[99] utilizationSecIdle 6824.4882937896
scalar OsgEarthNet.uav[99] utilizationEnergyMission 125385.41386795
scalar OsgEarthNet.uav[99] utilizationEnergyMaintenance 145933.9956131
scalar OsgEarthNet.uav[99] utilizationEnergyCharge 268658.59521484
scalar OsgEarthNet.uav[99] utilizationEnergyOverdrawMission 0
scalar OsgEarthNet.uav[99] utilizationEnergyOverdrawMaintenance 0
scalar OsgEarthNet.uav[99] utilizationCountMissions 64
scalar OsgEarthNet.uav[99] utilizationCountManeuversMission 812
scalar OsgEarthNet.uav[99] utilizationCountManeuversMaintenance 128
scalar OsgEarthNet.uav[99] utilizationCountChargeState 64
scalar OsgEarthNet.uav[99] utilizationCountOverdrawnAfterMission 0
scalar OsgEarthNet.uav[99] utilizationCountIdleState 15
scalar OsgEarthNet.uav[99] utilizationFail 0
scalar OsgEarthNet.uav[99] simulationTime 259200
scalar OsgEarthNet.cs[0] usedPower 5721444.8294141
scalar OsgEarthNet.cs[0] chargedPower 5721444.8294141
scalar OsgEarthNet.cs[0] chargedMobileNodes 996
scalar OsgEarthNet.cs[0] reservations 1370
scalar OsgEarthNet.cs[1] usedPower 5738751.6968398
scalar OsgEarthNet.cs[1] chargedPower 5738751.6968398
scalar OsgEarthNet.cs[1] chargedMobileNodes 980
scalar OsgEarthNet.cs[1] reservations 1331
scalar OsgEarthNet.cs[2] usedPower 10187674.024433
scalar OsgEarthNet.cs[2] chargedPower 10187674.024433
scalar OsgEarthNet.cs[2] chargedMobileNodes 1938
scalar OsgEarthNet.cs[2] reservations 2444

