version 2
run Szenario_Hotel_Gabelbach-74-20180708-00:07:48-48264
attr configname Szenario_Hotel_Gabelbach
attr datetime 20180708-00:07:48
attr experiment Szenario_Hotel_Gabelbach
attr inifile omnetpp.ini
attr iterationvars "$quant=0.975, $replM=0"
attr iterationvarsf quant=0.975,replM=0-
attr measurement "$quant=0.975, $replM=0"
attr network OsgEarthNet
attr processid 48264
attr repetition 2
attr replication #2
attr resultdir results
attr runnumber 74
attr seedset 74
itervar quant 0.975
itervar replM 0
param *.osgEarthScene.scene "\"Szenario_Hotel_Gabelbach.earth\""
param *.playgroundLatitude 50.6830269
param *.playgroundLongitude 10.8538055
param *.playgroundWidth 3500m
param *.playgroundHeight 3500m
param *.numCSs 3
param *.numUAVs 100
param *.cs[0].posX 3537m
param *.cs[0].posY 965m
param *.cs[0].posZ 538m
param *.cs[1].posX 312m
param *.cs[1].posY 1262m
param *.cs[1].posZ 539m
param *.cs[2].posX 2185m
param *.cs[2].posY 3026m
param *.cs[2].posZ 777m
param *.uav[*].predictionQuantile 0.975
param *.uav[*].replacementMethod 0
param *.*.timeStep 10s
param *.uav[*].commandPreviewCommandCount 20
param *.missionControl.missionFiles "\"missions\\\\Szenario_WB_Hotel_Gabelbach_Mission_Hotel.waypoints,missions\\\\Szenario_WB_Hotel_Gabelbach_Mission_Kickelhahn.waypoints,missions\\\\Szenario_WB_Hotel_Gabelbach_Mission_Ilmenau_Sportplatz.waypoints,missions\\\\Szenario_WB_Hotel_Gabelbach_Mission_Manebach_Mitte.waypoints,missions\\\\Szenario_WB_Hotel_Gabelbach_Mission_Manebach_Sued.waypoints,missions\\\\Szenario_WB_Hotel_Gabelbach_Hover_HoheSchlaufe.waypoints,missions\\\\Szenario_WB_Hotel_Gabelbach_Hover_Kickelhahn.waypoints,missions\\\\Szenario_WB_Hotel_Gabelbach_Hover_Gabelbachskopf.waypoints,missions\\\\Szenario_WB_Hotel_Gabelbach_Hover_Dachskopf.waypoints\""
param *.uav[0].startX 3537m
param *.uav[0].startY 965m
param *.uav[0].startZ 539m
param *.uav[1].startX 312m
param *.uav[1].startY 1262m
param *.uav[1].startZ 540m
param *.uav[2].startX 2185m
param *.uav[2].startY 3026m
param *.uav[2].startZ 778m
param *.uav[3].startX 3537m
param *.uav[3].startY 965m
param *.uav[3].startZ 539m
param *.uav[4].startX 312m
param *.uav[4].startY 1262m
param *.uav[4].startZ 540m
param *.uav[5].startX 2185m
param *.uav[5].startY 3026m
param *.uav[5].startZ 778m
param *.uav[6].startX 3537m
param *.uav[6].startY 965m
param *.uav[6].startZ 539m
param *.uav[7].startX 312m
param *.uav[7].startY 1262m
param *.uav[7].startZ 540m
param *.uav[8].startX 2185m
param *.uav[8].startY 3026m
param *.uav[8].startZ 778m
param *.uav[9].startX 3537m
param *.uav[9].startY 965m
param *.uav[9].startZ 539m
param *.uav[10].startX 3537m
param *.uav[10].startY 965m
param *.uav[10].startZ 539m
param *.uav[11].startX 312m
param *.uav[11].startY 1262m
param *.uav[11].startZ 540m
param *.uav[12].startX 2185m
param *.uav[12].startY 3026m
param *.uav[12].startZ 778m
param *.uav[13].startX 3537m
param *.uav[13].startY 965m
param *.uav[13].startZ 539m
param *.uav[14].startX 312m
param *.uav[14].startY 1262m
param *.uav[14].startZ 540m
param *.uav[15].startX 2185m
param *.uav[15].startY 3026m
param *.uav[15].startZ 778m
param *.uav[16].startX 3537m
param *.uav[16].startY 965m
param *.uav[16].startZ 539m
param *.uav[17].startX 312m
param *.uav[17].startY 1262m
param *.uav[17].startZ 540m
param *.uav[18].startX 2185m
param *.uav[18].startY 3026m
param *.uav[18].startZ 778m
param *.uav[19].startX 3537m
param *.uav[19].startY 965m
param *.uav[19].startZ 539m
param *.uav[20].startX 3537m
param *.uav[20].startY 965m
param *.uav[20].startZ 539m
param *.uav[21].startX 312m
param *.uav[21].startY 1262m
param *.uav[21].startZ 540m
param *.uav[22].startX 2185m
param *.uav[22].startY 3026m
param *.uav[22].startZ 778m
param *.uav[23].startX 3537m
param *.uav[23].startY 965m
param *.uav[23].startZ 539m
param *.uav[24].startX 312m
param *.uav[24].startY 1262m
param *.uav[24].startZ 540m
param *.uav[25].startX 2185m
param *.uav[25].startY 3026m
param *.uav[25].startZ 778m
param *.uav[26].startX 3537m
param *.uav[26].startY 965m
param *.uav[26].startZ 539m
param *.uav[27].startX 312m
param *.uav[27].startY 1262m
param *.uav[27].startZ 540m
param *.uav[28].startX 2185m
param *.uav[28].startY 3026m
param *.uav[28].startZ 778m
param *.uav[29].startX 3537m
param *.uav[29].startY 965m
param *.uav[29].startZ 539m
param *.uav[30].startX 3537m
param *.uav[30].startY 965m
param *.uav[30].startZ 539m
param *.uav[31].startX 312m
param *.uav[31].startY 1262m
param *.uav[31].startZ 540m
param *.uav[32].startX 2185m
param *.uav[32].startY 3026m
param *.uav[32].startZ 778m
param *.uav[33].startX 3537m
param *.uav[33].startY 965m
param *.uav[33].startZ 539m
param *.uav[34].startX 312m
param *.uav[34].startY 1262m
param *.uav[34].startZ 540m
param *.uav[35].startX 2185m
param *.uav[35].startY 3026m
param *.uav[35].startZ 778m
param *.uav[36].startX 3537m
param *.uav[36].startY 965m
param *.uav[36].startZ 539m
param *.uav[37].startX 312m
param *.uav[37].startY 1262m
param *.uav[37].startZ 540m
param *.uav[38].startX 2185m
param *.uav[38].startY 3026m
param *.uav[38].startZ 778m
param *.uav[39].startX 3537m
param *.uav[39].startY 965m
param *.uav[39].startZ 539m
param *.uav[40].startX 3537m
param *.uav[40].startY 965m
param *.uav[40].startZ 539m
param *.uav[41].startX 312m
param *.uav[41].startY 1262m
param *.uav[41].startZ 540m
param *.uav[42].startX 2185m
param *.uav[42].startY 3026m
param *.uav[42].startZ 778m
param *.uav[43].startX 3537m
param *.uav[43].startY 965m
param *.uav[43].startZ 539m
param *.uav[44].startX 312m
param *.uav[44].startY 1262m
param *.uav[44].startZ 540m
param *.uav[45].startX 2185m
param *.uav[45].startY 3026m
param *.uav[45].startZ 778m
param *.uav[46].startX 3537m
param *.uav[46].startY 965m
param *.uav[46].startZ 539m
param *.uav[47].startX 312m
param *.uav[47].startY 1262m
param *.uav[47].startZ 540m
param *.uav[48].startX 2185m
param *.uav[48].startY 3026m
param *.uav[48].startZ 778m
param *.uav[49].startX 3537m
param *.uav[49].startY 965m
param *.uav[49].startZ 539m
param *.uav[50].startX 3537m
param *.uav[50].startY 965m
param *.uav[50].startZ 539m
param *.uav[51].startX 312m
param *.uav[51].startY 1262m
param *.uav[51].startZ 540m
param *.uav[52].startX 2185m
param *.uav[52].startY 3026m
param *.uav[52].startZ 778m
param *.uav[53].startX 3537m
param *.uav[53].startY 965m
param *.uav[53].startZ 539m
param *.uav[54].startX 312m
param *.uav[54].startY 1262m
param *.uav[54].startZ 540m
param *.uav[55].startX 2185m
param *.uav[55].startY 3026m
param *.uav[55].startZ 778m
param *.uav[56].startX 3537m
param *.uav[56].startY 965m
param *.uav[56].startZ 539m
param *.uav[57].startX 312m
param *.uav[57].startY 1262m
param *.uav[57].startZ 540m
param *.uav[58].startX 2185m
param *.uav[58].startY 3026m
param *.uav[58].startZ 778m
param *.uav[59].startX 3537m
param *.uav[59].startY 965m
param *.uav[59].startZ 539m
param *.uav[60].startX 3537m
param *.uav[60].startY 965m
param *.uav[60].startZ 539m
param *.uav[61].startX 312m
param *.uav[61].startY 1262m
param *.uav[61].startZ 540m
param *.uav[62].startX 2185m
param *.uav[62].startY 3026m
param *.uav[62].startZ 778m
param *.uav[63].startX 3537m
param *.uav[63].startY 965m
param *.uav[63].startZ 539m
param *.uav[64].startX 312m
param *.uav[64].startY 1262m
param *.uav[64].startZ 540m
param *.uav[65].startX 2185m
param *.uav[65].startY 3026m
param *.uav[65].startZ 778m
param *.uav[66].startX 3537m
param *.uav[66].startY 965m
param *.uav[66].startZ 539m
param *.uav[67].startX 312m
param *.uav[67].startY 1262m
param *.uav[67].startZ 540m
param *.uav[68].startX 2185m
param *.uav[68].startY 3026m
param *.uav[68].startZ 778m
param *.uav[69].startX 3537m
param *.uav[69].startY 965m
param *.uav[69].startZ 539m
param *.uav[70].startX 3537m
param *.uav[70].startY 965m
param *.uav[70].startZ 539m
param *.uav[71].startX 312m
param *.uav[71].startY 1262m
param *.uav[71].startZ 540m
param *.uav[72].startX 2185m
param *.uav[72].startY 3026m
param *.uav[72].startZ 778m
param *.uav[73].startX 3537m
param *.uav[73].startY 965m
param *.uav[73].startZ 539m
param *.uav[74].startX 312m
param *.uav[74].startY 1262m
param *.uav[74].startZ 540m
param *.uav[75].startX 2185m
param *.uav[75].startY 3026m
param *.uav[75].startZ 778m
param *.uav[76].startX 3537m
param *.uav[76].startY 965m
param *.uav[76].startZ 539m
param *.uav[77].startX 312m
param *.uav[77].startY 1262m
param *.uav[77].startZ 540m
param *.uav[78].startX 2185m
param *.uav[78].startY 3026m
param *.uav[78].startZ 778m
param *.uav[79].startX 3537m
param *.uav[79].startY 965m
param *.uav[79].startZ 539m
param *.uav[80].startX 3537m
param *.uav[80].startY 965m
param *.uav[80].startZ 539m
param *.uav[81].startX 312m
param *.uav[81].startY 1262m
param *.uav[81].startZ 540m
param *.uav[82].startX 2185m
param *.uav[82].startY 3026m
param *.uav[82].startZ 778m
param *.uav[83].startX 3537m
param *.uav[83].startY 965m
param *.uav[83].startZ 539m
param *.uav[84].startX 312m
param *.uav[84].startY 1262m
param *.uav[84].startZ 540m
param *.uav[85].startX 2185m
param *.uav[85].startY 3026m
param *.uav[85].startZ 778m
param *.uav[86].startX 3537m
param *.uav[86].startY 965m
param *.uav[86].startZ 539m
param *.uav[87].startX 312m
param *.uav[87].startY 1262m
param *.uav[87].startZ 540m
param *.uav[88].startX 2185m
param *.uav[88].startY 3026m
param *.uav[88].startZ 778m
param *.uav[89].startX 3537m
param *.uav[89].startY 965m
param *.uav[89].startZ 539m
param *.uav[90].startX 3537m
param *.uav[90].startY 965m
param *.uav[90].startZ 539m
param *.uav[91].startX 312m
param *.uav[91].startY 1262m
param *.uav[91].startZ 540m
param *.uav[92].startX 2185m
param *.uav[92].startY 3026m
param *.uav[92].startZ 778m
param *.uav[93].startX 3537m
param *.uav[93].startY 965m
param *.uav[93].startZ 539m
param *.uav[94].startX 312m
param *.uav[94].startY 1262m
param *.uav[94].startZ 540m
param *.uav[95].startX 2185m
param *.uav[95].startY 3026m
param *.uav[95].startZ 778m
param *.uav[96].startX 3537m
param *.uav[96].startY 965m
param *.uav[96].startZ 539m
param *.uav[97].startX 312m
param *.uav[97].startY 1262m
param *.uav[97].startZ 540m
param *.uav[98].startX 2185m
param *.uav[98].startY 3026m
param *.uav[98].startZ 778m
param *.uav[99].startX 3537m
param *.uav[99].startY 965m
param *.uav[99].startZ 539m
param *.osgEarthScene.scene "\"boston.earth\""
param *.playgroundLatitude 42.3558
param *.playgroundLongitude -71.0677
param *.playgroundWidth 400m
param *.playgroundHeight 200m
param *.channelController.connectionColor "\"#0000FF40\""
param *.channelController.showConnections false
param *.uav[*].modelURL "\"quadrocopter.small.obj.15.scale.0,0,90.rot\""
param *.uav[*].labelColor "\"#FF7C00CC\""
param *.uav[*].label2Color "\"#FF7C00EE\""
param *.uav[*].batteryCapacity 5200mAh
param *.uav[*].batteryRemaining uav[index].batteryCapacity
param *.uav[*].predictionQuantile 0.95
param *.uav[*].replacementMethod 2
param *.uav[*].weightedSumWeight 0.5
param *.cs[*].modelURL "\"chargingstation_v1.osgt.1.scale.0,0,0.rot.0,0,-15e-1.trans\""
param *.cs[*].spotsWaiting 999
param *.cs[*].spotsCharging 999
param *.cs[*].chargeEffectivenessPercentage 100
param *.cs[*].nonLinearPhaseStartPercentage 85
param *.cs[*].chargeCurrent 6.0A
param *.cs[*].prioritizeFastCharge true
param *.missionControl.replacementSearchMethod 0
param *.*.timeStep 9s

scalar OsgEarthNet.uav[0] utilizationSecMission 24737.132174659
scalar OsgEarthNet.uav[0] utilizationSecMaintenance 20295.378385752
scalar OsgEarthNet.uav[0] utilizationSecCharge 161755.47443959
scalar OsgEarthNet.uav[0] utilizationSecIdle 52412.014
scalar OsgEarthNet.uav[0] utilizationEnergyMission 118234.21353912
scalar OsgEarthNet.uav[0] utilizationEnergyMaintenance 94722.908359528
scalar OsgEarthNet.uav[0] utilizationEnergyCharge 212130.20336914
scalar OsgEarthNet.uav[0] utilizationEnergyOverdrawMission 0
scalar OsgEarthNet.uav[0] utilizationEnergyOverdrawMaintenance 0
scalar OsgEarthNet.uav[0] utilizationCountMissions 49
scalar OsgEarthNet.uav[0] utilizationCountManeuversMission 685
scalar OsgEarthNet.uav[0] utilizationCountManeuversMaintenance 98
scalar OsgEarthNet.uav[0] utilizationCountChargeState 49
scalar OsgEarthNet.uav[0] utilizationCountOverdrawnAfterMission 0
scalar OsgEarthNet.uav[0] utilizationCountIdleState 49
scalar OsgEarthNet.uav[0] utilizationFail 0
scalar OsgEarthNet.uav[0] simulationTime 259200
scalar OsgEarthNet.uav[1] utilizationSecMission 27909.241546319
scalar OsgEarthNet.uav[1] utilizationSecMaintenance 21867.672702313
scalar OsgEarthNet.uav[1] utilizationSecCharge 179651.07975137
scalar OsgEarthNet.uav[1] utilizationSecIdle 29772.005
scalar OsgEarthNet.uav[1] utilizationEnergyMission 136640.12909317
scalar OsgEarthNet.uav[1] utilizationEnergyMaintenance 102496.31794357
scalar OsgEarthNet.uav[1] utilizationEnergyCharge 234068.85107422
scalar OsgEarthNet.uav[1] utilizationEnergyOverdrawMission 0
scalar OsgEarthNet.uav[1] utilizationEnergyOverdrawMaintenance 0
scalar OsgEarthNet.uav[1] utilizationCountMissions 55
scalar OsgEarthNet.uav[1] utilizationCountManeuversMission 979
scalar OsgEarthNet.uav[1] utilizationCountManeuversMaintenance 110
scalar OsgEarthNet.uav[1] utilizationCountChargeState 55
scalar OsgEarthNet.uav[1] utilizationCountOverdrawnAfterMission 0
scalar OsgEarthNet.uav[1] utilizationCountIdleState 55
scalar OsgEarthNet.uav[1] utilizationFail 0
scalar OsgEarthNet.uav[1] simulationTime 259200
scalar OsgEarthNet.uav[2] utilizationSecMission 23641.070560093
scalar OsgEarthNet.uav[2] utilizationSecMaintenance 25459.0569995
scalar OsgEarthNet.uav[2] utilizationSecCharge 176822.42117638
scalar OsgEarthNet.uav[2] utilizationSecIdle 33277.450264031
scalar OsgEarthNet.uav[2] utilizationEnergyMission 115194.63581467
scalar OsgEarthNet.uav[2] utilizationEnergyMaintenance 119251.69335937
scalar OsgEarthNet.uav[2] utilizationEnergyCharge 232609.77734375
scalar OsgEarthNet.uav[2] utilizationEnergyOverdrawMission 0
scalar OsgEarthNet.uav[2] utilizationEnergyOverdrawMaintenance 0
scalar OsgEarthNet.uav[2] utilizationCountMissions 53
scalar OsgEarthNet.uav[2] utilizationCountManeuversMission 768
scalar OsgEarthNet.uav[2] utilizationCountManeuversMaintenance 106
scalar OsgEarthNet.uav[2] utilizationCountChargeState 53
scalar OsgEarthNet.uav[2] utilizationCountOverdrawnAfterMission 0
scalar OsgEarthNet.uav[2] utilizationCountIdleState 53
scalar OsgEarthNet.uav[2] utilizationFail 0
scalar OsgEarthNet.uav[2] simulationTime 259200
scalar OsgEarthNet.uav[3] utilizationSecMission 3623.1517565295
scalar OsgEarthNet.uav[3] utilizationSecMaintenance 3028.0386773904
scalar OsgEarthNet.uav[3] utilizationSecCharge 20328.563666267
scalar OsgEarthNet.uav[3] utilizationSecIdle 232220.24489981
scalar OsgEarthNet.uav[3] utilizationEnergyMission 17549.1498909
scalar OsgEarthNet.uav[3] utilizationEnergyMaintenance 13815.809112549
scalar OsgEarthNet.uav[3] utilizationEnergyCharge 26696.022033691
scalar OsgEarthNet.uav[3] utilizationEnergyOverdrawMission 0
scalar OsgEarthNet.uav[3] utilizationEnergyOverdrawMaintenance 0
scalar OsgEarthNet.uav[3] utilizationCountMissions 7
scalar OsgEarthNet.uav[3] utilizationCountManeuversMission 99
scalar OsgEarthNet.uav[3] utilizationCountManeuversMaintenance 14
scalar OsgEarthNet.uav[3] utilizationCountChargeState 7
scalar OsgEarthNet.uav[3] utilizationCountOverdrawnAfterMission 0
scalar OsgEarthNet.uav[3] utilizationCountIdleState 7
scalar OsgEarthNet.uav[3] utilizationFail 0
scalar OsgEarthNet.uav[3] simulationTime 259200
scalar OsgEarthNet.uav[4] utilizationSecMission 23674.439696702
scalar OsgEarthNet.uav[4] utilizationSecMaintenance 23099.007887128
scalar OsgEarthNet.uav[4] utilizationSecCharge 170270
scalar OsgEarthNet.uav[4] utilizationSecIdle 42156.55141617
scalar OsgEarthNet.uav[4] utilizationEnergyMission 117469.38018799
scalar OsgEarthNet.uav[4] utilizationEnergyMaintenance 106022.48601734
scalar OsgEarthNet.uav[4] utilizationEnergyCharge 222574.47729492
scalar OsgEarthNet.uav[4] utilizationEnergyOverdrawMission 0
scalar OsgEarthNet.uav[4] utilizationEnergyOverdrawMaintenance 0
scalar OsgEarthNet.uav[4] utilizationCountMissions 51
scalar OsgEarthNet.uav[4] utilizationCountManeuversMission 746
scalar OsgEarthNet.uav[4] utilizationCountManeuversMaintenance 102
scalar OsgEarthNet.uav[4] utilizationCountChargeState 51
scalar OsgEarthNet.uav[4] utilizationCountOverdrawnAfterMission 0
scalar OsgEarthNet.uav[4] utilizationCountIdleState 52
scalar OsgEarthNet.uav[4] utilizationFail 0
scalar OsgEarthNet.uav[4] simulationTime 259200
scalar OsgEarthNet.uav[5] utilizationSecMission 24650.43958982
scalar OsgEarthNet.uav[5] utilizationSecMaintenance 23302.579739504
scalar OsgEarthNet.uav[5] utilizationSecCharge 174624.97667068
scalar OsgEarthNet.uav[5] utilizationSecIdle 36622.003
scalar OsgEarthNet.uav[5] utilizationEnergyMission 120293.689991
scalar OsgEarthNet.uav[5] utilizationEnergyMaintenance 109421.3624382
scalar OsgEarthNet.uav[5] utilizationEnergyCharge 228570.81713867
scalar OsgEarthNet.uav[5] utilizationEnergyOverdrawMission 0
scalar OsgEarthNet.uav[5] utilizationEnergyOverdrawMaintenance 0
scalar OsgEarthNet.uav[5] utilizationCountMissions 53
scalar OsgEarthNet.uav[5] utilizationCountManeuversMission 765
scalar OsgEarthNet.uav[5] utilizationCountManeuversMaintenance 106
scalar OsgEarthNet.uav[5] utilizationCountChargeState 53
scalar OsgEarthNet.uav[5] utilizationCountOverdrawnAfterMission 0
scalar OsgEarthNet.uav[5] utilizationCountIdleState 53
scalar OsgEarthNet.uav[5] utilizationFail 0
scalar OsgEarthNet.uav[5] simulationTime 259200
scalar OsgEarthNet.uav[6] utilizationSecMission 25920.015952679
scalar OsgEarthNet.uav[6] utilizationSecMaintenance 24086.357908498
scalar OsgEarthNet.uav[6] utilizationSecCharge 176221.61813882
scalar OsgEarthNet.uav[6] utilizationSecIdle 32972.007
scalar OsgEarthNet.uav[6] utilizationEnergyMission 124089.1717186
scalar OsgEarthNet.uav[6] utilizationEnergyMaintenance 112449.0149498
scalar OsgEarthNet.uav[6] utilizationEnergyCharge 231783.47753906
scalar OsgEarthNet.uav[6] utilizationEnergyOverdrawMission 0
scalar OsgEarthNet.uav[6] utilizationEnergyOverdrawMaintenance 177.11100769043
scalar OsgEarthNet.uav[6] utilizationCountMissions 53
scalar OsgEarthNet.uav[6] utilizationCountManeuversMission 678
scalar OsgEarthNet.uav[6] utilizationCountManeuversMaintenance 106
scalar OsgEarthNet.uav[6] utilizationCountChargeState 53
scalar OsgEarthNet.uav[6] utilizationCountOverdrawnAfterMission 1
scalar OsgEarthNet.uav[6] utilizationCountIdleState 53
scalar OsgEarthNet.uav[6] utilizationFail 0
scalar OsgEarthNet.uav[6] simulationTime 259200
scalar OsgEarthNet.uav[7] utilizationSecMission 26200.117496547
scalar OsgEarthNet.uav[7] utilizationSecMaintenance 23582.162330236
scalar OsgEarthNet.uav[7] utilizationSecCharge 178708.33516863
scalar OsgEarthNet.uav[7] utilizationSecIdle 30709.384004586
scalar OsgEarthNet.uav[7] utilizationEnergyMission 127481.73508835
scalar OsgEarthNet.uav[7] utilizationEnergyMaintenance 109100.91112137
scalar OsgEarthNet.uav[7] utilizationEnergyCharge 234171.12524414
scalar OsgEarthNet.uav[7] utilizationEnergyOverdrawMission 0
scalar OsgEarthNet.uav[7] utilizationEnergyOverdrawMaintenance 0
scalar OsgEarthNet.uav[7] utilizationCountMissions 54
scalar OsgEarthNet.uav[7] utilizationCountManeuversMission 775
scalar OsgEarthNet.uav[7] utilizationCountManeuversMaintenance 108
scalar OsgEarthNet.uav[7] utilizationCountChargeState 54
scalar OsgEarthNet.uav[7] utilizationCountOverdrawnAfterMission 0
scalar OsgEarthNet.uav[7] utilizationCountIdleState 54
scalar OsgEarthNet.uav[7] utilizationFail 0
scalar OsgEarthNet.uav[7] simulationTime 259200
scalar OsgEarthNet.uav[8] utilizationSecMission 26865.814113366
scalar OsgEarthNet.uav[8] utilizationSecMaintenance 24166.666544106
scalar OsgEarthNet.uav[8] utilizationSecCharge 183525.51734253
scalar OsgEarthNet.uav[8] utilizationSecIdle 24642.001
scalar OsgEarthNet.uav[8] utilizationEnergyMission 130416.69509506
scalar OsgEarthNet.uav[8] utilizationEnergyMaintenance 112929.27103043
scalar OsgEarthNet.uav[8] utilizationEnergyCharge 240102.94958496
scalar OsgEarthNet.uav[8] utilizationEnergyOverdrawMission 0
scalar OsgEarthNet.uav[8] utilizationEnergyOverdrawMaintenance 0
scalar OsgEarthNet.uav[8] utilizationCountMissions 56
scalar OsgEarthNet.uav[8] utilizationCountManeuversMission 841
scalar OsgEarthNet.uav[8] utilizationCountManeuversMaintenance 112
scalar OsgEarthNet.uav[8] utilizationCountChargeState 56
scalar OsgEarthNet.uav[8] utilizationCountOverdrawnAfterMission 0
scalar OsgEarthNet.uav[8] utilizationCountIdleState 56
scalar OsgEarthNet.uav[8] utilizationFail 0
scalar OsgEarthNet.uav[8] simulationTime 259200
scalar OsgEarthNet.uav[9] utilizationSecMission 25392.233146307
scalar OsgEarthNet.uav[9] utilizationSecMaintenance 20190.766801884
scalar OsgEarthNet.uav[9] utilizationSecCharge 165514.98705181
scalar OsgEarthNet.uav[9] utilizationSecIdle 48102.012
scalar OsgEarthNet.uav[9] utilizationEnergyMission 121259.660923
scalar OsgEarthNet.uav[9] utilizationEnergyMaintenance 93142.230308533
scalar OsgEarthNet.uav[9] utilizationEnergyCharge 217574.65600586
scalar OsgEarthNet.uav[9] utilizationEnergyOverdrawMission 0
scalar OsgEarthNet.uav[9] utilizationEnergyOverdrawMaintenance 0
scalar OsgEarthNet.uav[9] utilizationCountMissions 49
scalar OsgEarthNet.uav[9] utilizationCountManeuversMission 720
scalar OsgEarthNet.uav[9] utilizationCountManeuversMaintenance 98
scalar OsgEarthNet.uav[9] utilizationCountChargeState 49
scalar OsgEarthNet.uav[9] utilizationCountOverdrawnAfterMission 0
scalar OsgEarthNet.uav[9] utilizationCountIdleState 49
scalar OsgEarthNet.uav[9] utilizationFail 0
scalar OsgEarthNet.uav[9] simulationTime 259200
scalar OsgEarthNet.uav[10] utilizationSecMission 1090.1901912223
scalar OsgEarthNet.uav[10] utilizationSecMaintenance 829.63003210653
scalar OsgEarthNet.uav[10] utilizationSecCharge 6600
scalar OsgEarthNet.uav[10] utilizationSecIdle 250680.17877667
scalar OsgEarthNet.uav[10] utilizationEnergyMission 5155.3928833008
scalar OsgEarthNet.uav[10] utilizationEnergyMaintenance 3843.0974349976
scalar OsgEarthNet.uav[10] utilizationEnergyCharge 8674.341796875
scalar OsgEarthNet.uav[10] utilizationEnergyOverdrawMission 0
scalar OsgEarthNet.uav[10] utilizationEnergyOverdrawMaintenance 0
scalar OsgEarthNet.uav[10] utilizationCountMissions 2
scalar OsgEarthNet.uav[10] utilizationCountManeuversMission 37
scalar OsgEarthNet.uav[10] utilizationCountManeuversMaintenance 4
scalar OsgEarthNet.uav[10] utilizationCountChargeState 2
scalar OsgEarthNet.uav[10] utilizationCountOverdrawnAfterMission 0
scalar OsgEarthNet.uav[10] utilizationCountIdleState 3
scalar OsgEarthNet.uav[10] utilizationFail 0
scalar OsgEarthNet.uav[10] simulationTime 259200
scalar OsgEarthNet.uav[11] utilizationSecMission 25031.91468159
scalar OsgEarthNet.uav[11] utilizationSecMaintenance 25972.803895759
scalar OsgEarthNet.uav[11] utilizationSecCharge 185373.27842265
scalar OsgEarthNet.uav[11] utilizationSecIdle 22822.002
scalar OsgEarthNet.uav[11] utilizationEnergyMission 122256.40530777
scalar OsgEarthNet.uav[11] utilizationEnergyMaintenance 120499.46044159
scalar OsgEarthNet.uav[11] utilizationEnergyCharge 241391.62182617
scalar OsgEarthNet.uav[11] utilizationEnergyOverdrawMission 0
scalar OsgEarthNet.uav[11] utilizationEnergyOverdrawMaintenance 0
scalar OsgEarthNet.uav[11] utilizationCountMissions 56
scalar OsgEarthNet.uav[11] utilizationCountManeuversMission 859
scalar OsgEarthNet.uav[11] utilizationCountManeuversMaintenance 112
scalar OsgEarthNet.uav[11] utilizationCountChargeState 56
scalar OsgEarthNet.uav[11] utilizationCountOverdrawnAfterMission 0
scalar OsgEarthNet.uav[11] utilizationCountIdleState 56
scalar OsgEarthNet.uav[11] utilizationFail 0
scalar OsgEarthNet.uav[11] simulationTime 259200
scalar OsgEarthNet.uav[12] utilizationSecMission 20220.966130104
scalar OsgEarthNet.uav[12] utilizationSecMaintenance 19511.563292952
scalar OsgEarthNet.uav[12] utilizationSecCharge 143205.1421098
scalar OsgEarthNet.uav[12] utilizationSecIdle 76262.327467144
scalar OsgEarthNet.uav[12] utilizationEnergyMission 98475.497005463
scalar OsgEarthNet.uav[12] utilizationEnergyMaintenance 89599.219787598
scalar OsgEarthNet.uav[12] utilizationEnergyCharge 187092.1953125
scalar OsgEarthNet.uav[12] utilizationEnergyOverdrawMission 0
scalar OsgEarthNet.uav[12] utilizationEnergyOverdrawMaintenance 0
scalar OsgEarthNet.uav[12] utilizationCountMissions 43
scalar OsgEarthNet.uav[12] utilizationCountManeuversMission 621
scalar OsgEarthNet.uav[12] utilizationCountManeuversMaintenance 86
scalar OsgEarthNet.uav[12] utilizationCountChargeState 43
scalar OsgEarthNet.uav[12] utilizationCountOverdrawnAfterMission 0
scalar OsgEarthNet.uav[12] utilizationCountIdleState 43
scalar OsgEarthNet.uav[12] utilizationFail 0
scalar OsgEarthNet.uav[12] simulationTime 259200
scalar OsgEarthNet.uav[13] utilizationSecMission 16665.481215343
scalar OsgEarthNet.uav[13] utilizationSecMaintenance 13297.053916074
scalar OsgEarthNet.uav[13] utilizationSecCharge 108256.62446444
scalar OsgEarthNet.uav[13] utilizationSecIdle 120980.83940415
scalar OsgEarthNet.uav[13] utilizationEnergyMission 82789.749259949
scalar OsgEarthNet.uav[13] utilizationEnergyMaintenance 61858.100791931
scalar OsgEarthNet.uav[13] utilizationEnergyCharge 142252.17773438
scalar OsgEarthNet.uav[13] utilizationEnergyOverdrawMission 0
scalar OsgEarthNet.uav[13] utilizationEnergyOverdrawMaintenance 0
scalar OsgEarthNet.uav[13] utilizationCountMissions 33
scalar OsgEarthNet.uav[13] utilizationCountManeuversMission 540
scalar OsgEarthNet.uav[13] utilizationCountManeuversMaintenance 66
scalar OsgEarthNet.uav[13] utilizationCountChargeState 33
scalar OsgEarthNet.uav[13] utilizationCountOverdrawnAfterMission 0
scalar OsgEarthNet.uav[13] utilizationCountIdleState 33
scalar OsgEarthNet.uav[13] utilizationFail 0
scalar OsgEarthNet.uav[13] simulationTime 259200
scalar OsgEarthNet.uav[14] utilizationSecMission 23224.573537989
scalar OsgEarthNet.uav[14] utilizationSecMaintenance 22731.914092426
scalar OsgEarthNet.uav[14] utilizationSecCharge 167390
scalar OsgEarthNet.uav[14] utilizationSecIdle 45853.511369585
scalar OsgEarthNet.uav[14] utilizationEnergyMission 112789.17838669
scalar OsgEarthNet.uav[14] utilizationEnergyMaintenance 107065.42270279
scalar OsgEarthNet.uav[14] utilizationEnergyCharge 219320.66650391
scalar OsgEarthNet.uav[14] utilizationEnergyOverdrawMission 0
scalar OsgEarthNet.uav[14] utilizationEnergyOverdrawMaintenance 0
scalar OsgEarthNet.uav[14] utilizationCountMissions 50
scalar OsgEarthNet.uav[14] utilizationCountManeuversMission 679
scalar OsgEarthNet.uav[14] utilizationCountManeuversMaintenance 100
scalar OsgEarthNet.uav[14] utilizationCountChargeState 50
scalar OsgEarthNet.uav[14] utilizationCountOverdrawnAfterMission 0
scalar OsgEarthNet.uav[14] utilizationCountIdleState 51
scalar OsgEarthNet.uav[14] utilizationFail 0
scalar OsgEarthNet.uav[14] simulationTime 259200
scalar OsgEarthNet.uav[15] utilizationSecMission 19326.409237935
scalar OsgEarthNet.uav[15] utilizationSecMaintenance 19253.235116333
scalar OsgEarthNet.uav[15] utilizationSecCharge 139108.35064573
scalar OsgEarthNet.uav[15] utilizationSecIdle 81512.004
scalar OsgEarthNet.uav[15] utilizationEnergyMission 92135.333236694
scalar OsgEarthNet.uav[15] utilizationEnergyMaintenance 89123.846759796
scalar OsgEarthNet.uav[15] utilizationEnergyCharge 182204.73803711
scalar OsgEarthNet.uav[15] utilizationEnergyOverdrawMission 0
scalar OsgEarthNet.uav[15] utilizationEnergyOverdrawMaintenance 0
scalar OsgEarthNet.uav[15] utilizationCountMissions 42
scalar OsgEarthNet.uav[15] utilizationCountManeuversMission 601
scalar OsgEarthNet.uav[15] utilizationCountManeuversMaintenance 84
scalar OsgEarthNet.uav[15] utilizationCountChargeState 42
scalar OsgEarthNet.uav[15] utilizationCountOverdrawnAfterMission 0
scalar OsgEarthNet.uav[15] utilizationCountIdleState 42
scalar OsgEarthNet.uav[15] utilizationFail 0
scalar OsgEarthNet.uav[15] simulationTime 259200
scalar OsgEarthNet.uav[16] utilizationSecMission 23091.873127909
scalar OsgEarthNet.uav[16] utilizationSecMaintenance 25608.070991834
scalar OsgEarthNet.uav[16] utilizationSecCharge 180278.04988026
scalar OsgEarthNet.uav[16] utilizationSecIdle 30222.005
scalar OsgEarthNet.uav[16] utilizationEnergyMission 113323.23313522
scalar OsgEarthNet.uav[16] utilizationEnergyMaintenance 120525.11954117
scalar OsgEarthNet.uav[16] utilizationEnergyCharge 234699.05957031
scalar OsgEarthNet.uav[16] utilizationEnergyOverdrawMission 0
scalar OsgEarthNet.uav[16] utilizationEnergyOverdrawMaintenance 0
scalar OsgEarthNet.uav[16] utilizationCountMissions 55
scalar OsgEarthNet.uav[16] utilizationCountManeuversMission 814
scalar OsgEarthNet.uav[16] utilizationCountManeuversMaintenance 110
scalar OsgEarthNet.uav[16] utilizationCountChargeState 55
scalar OsgEarthNet.uav[16] utilizationCountOverdrawnAfterMission 0
scalar OsgEarthNet.uav[16] utilizationCountIdleState 55
scalar OsgEarthNet.uav[16] utilizationFail 0
scalar OsgEarthNet.uav[16] simulationTime 259200
scalar OsgEarthNet.uav[17] utilizationSecMission 17486.041400772
scalar OsgEarthNet.uav[17] utilizationSecMaintenance 17849.212573002
scalar OsgEarthNet.uav[17] utilizationSecCharge 128194.90066598
scalar OsgEarthNet.uav[17] utilizationSecIdle 95669.844360248
scalar OsgEarthNet.uav[17] utilizationEnergyMission 84893.951126099
scalar OsgEarthNet.uav[17] utilizationEnergyMaintenance 82332.991695404
scalar OsgEarthNet.uav[17] utilizationEnergyCharge 166798.76098633
scalar OsgEarthNet.uav[17] utilizationEnergyOverdrawMission 0
scalar OsgEarthNet.uav[17] utilizationEnergyOverdrawMaintenance 0
scalar OsgEarthNet.uav[17] utilizationCountMissions 39
scalar OsgEarthNet.uav[17] utilizationCountManeuversMission 544
scalar OsgEarthNet.uav[17] utilizationCountManeuversMaintenance 78
scalar OsgEarthNet.uav[17] utilizationCountChargeState 39
scalar OsgEarthNet.uav[17] utilizationCountOverdrawnAfterMission 0
scalar OsgEarthNet.uav[17] utilizationCountIdleState 39
scalar OsgEarthNet.uav[17] utilizationFail 0
scalar OsgEarthNet.uav[17] simulationTime 259200
scalar OsgEarthNet.uav[18] utilizationSecMission 24294.347448337
scalar OsgEarthNet.uav[18] utilizationSecMaintenance 17749.301330842
scalar OsgEarthNet.uav[18] utilizationSecCharge 149080
scalar OsgEarthNet.uav[18] utilizationSecIdle 68076.350220821
scalar OsgEarthNet.uav[18] utilizationEnergyMission 115644.25566483
scalar OsgEarthNet.uav[18] utilizationEnergyMaintenance 81735.439772007
scalar OsgEarthNet.uav[18] utilizationEnergyCharge 194052.45605469
scalar OsgEarthNet.uav[18] utilizationEnergyOverdrawMission 0
scalar OsgEarthNet.uav[18] utilizationEnergyOverdrawMaintenance 0
scalar OsgEarthNet.uav[18] utilizationCountMissions 46
scalar OsgEarthNet.uav[18] utilizationCountManeuversMission 695
scalar OsgEarthNet.uav[18] utilizationCountManeuversMaintenance 92
scalar OsgEarthNet.uav[18] utilizationCountChargeState 45
scalar OsgEarthNet.uav[18] utilizationCountOverdrawnAfterMission 0
scalar OsgEarthNet.uav[18] utilizationCountIdleState 46
scalar OsgEarthNet.uav[18] utilizationFail 0
scalar OsgEarthNet.uav[18] simulationTime 259200
scalar OsgEarthNet.uav[19] utilizationSecMission 28742.872972632
scalar OsgEarthNet.uav[19] utilizationSecMaintenance 23117.657559755
scalar OsgEarthNet.uav[19] utilizationSecCharge 185667.46846761
scalar OsgEarthNet.uav[19] utilizationSecIdle 21672
scalar OsgEarthNet.uav[19] utilizationEnergyMission 138008.32499313
scalar OsgEarthNet.uav[19] utilizationEnergyMaintenance 107229.07127762
scalar OsgEarthNet.uav[19] utilizationEnergyCharge 243432.57006836
scalar OsgEarthNet.uav[19] utilizationEnergyOverdrawMission 0
scalar OsgEarthNet.uav[19] utilizationEnergyOverdrawMaintenance 0
scalar OsgEarthNet.uav[19] utilizationCountMissions 56
scalar OsgEarthNet.uav[19] utilizationCountManeuversMission 762
scalar OsgEarthNet.uav[19] utilizationCountManeuversMaintenance 111
scalar OsgEarthNet.uav[19] utilizationCountChargeState 56
scalar OsgEarthNet.uav[19] utilizationCountOverdrawnAfterMission 0
scalar OsgEarthNet.uav[19] utilizationCountIdleState 56
scalar OsgEarthNet.uav[19] utilizationFail 0
scalar OsgEarthNet.uav[19] simulationTime 259200
scalar OsgEarthNet.uav[20] utilizationSecMission 24612.051309756
scalar OsgEarthNet.uav[20] utilizationSecMaintenance 23635.937690244
scalar OsgEarthNet.uav[20] utilizationSecCharge 171660
scalar OsgEarthNet.uav[20] utilizationSecIdle 39292.01
scalar OsgEarthNet.uav[20] utilizationEnergyMission 118488.35995102
scalar OsgEarthNet.uav[20] utilizationEnergyMaintenance 108802.17232026
scalar OsgEarthNet.uav[20] utilizationEnergyCharge 225074.85742188
scalar OsgEarthNet.uav[20] utilizationEnergyOverdrawMission 0
scalar OsgEarthNet.uav[20] utilizationEnergyOverdrawMaintenance 0
scalar OsgEarthNet.uav[20] utilizationCountMissions 51
scalar OsgEarthNet.uav[20] utilizationCountManeuversMission 684
scalar OsgEarthNet.uav[20] utilizationCountManeuversMaintenance 103
scalar OsgEarthNet.uav[20] utilizationCountChargeState 51
scalar OsgEarthNet.uav[20] utilizationCountOverdrawnAfterMission 0
scalar OsgEarthNet.uav[20] utilizationCountIdleState 52
scalar OsgEarthNet.uav[20] utilizationFail 0
scalar OsgEarthNet.uav[20] simulationTime 259200
scalar OsgEarthNet.uav[21] utilizationSecMission 26041.55504414
scalar OsgEarthNet.uav[21] utilizationSecMaintenance 25178.638964219
scalar OsgEarthNet.uav[21] utilizationSecCharge 185790
scalar OsgEarthNet.uav[21] utilizationSecIdle 22189.804991641
scalar OsgEarthNet.uav[21] utilizationEnergyMission 125043.37875748
scalar OsgEarthNet.uav[21] utilizationEnergyMaintenance 117801.82679749
scalar OsgEarthNet.uav[21] utilizationEnergyCharge 242133.52856445
scalar OsgEarthNet.uav[21] utilizationEnergyOverdrawMission 0
scalar OsgEarthNet.uav[21] utilizationEnergyOverdrawMaintenance 0
scalar OsgEarthNet.uav[21] utilizationCountMissions 56
scalar OsgEarthNet.uav[21] utilizationCountManeuversMission 717
scalar OsgEarthNet.uav[21] utilizationCountManeuversMaintenance 112
scalar OsgEarthNet.uav[21] utilizationCountChargeState 56
scalar OsgEarthNet.uav[21] utilizationCountOverdrawnAfterMission 0
scalar OsgEarthNet.uav[21] utilizationCountIdleState 57
scalar OsgEarthNet.uav[21] utilizationFail 0
scalar OsgEarthNet.uav[21] simulationTime 259200
scalar OsgEarthNet.uav[22] utilizationSecMission 28096.267792128
scalar OsgEarthNet.uav[22] utilizationSecMaintenance 22830.711422168
scalar OsgEarthNet.uav[22] utilizationSecCharge 184701.0197857
scalar OsgEarthNet.uav[22] utilizationSecIdle 23572
scalar OsgEarthNet.uav[22] utilizationEnergyMission 137438.72070312
scalar OsgEarthNet.uav[22] utilizationEnergyMaintenance 106326.4654007
scalar OsgEarthNet.uav[22] utilizationEnergyCharge 242283.32202148
scalar OsgEarthNet.uav[22] utilizationEnergyOverdrawMission 0
scalar OsgEarthNet.uav[22] utilizationEnergyOverdrawMaintenance 0
scalar OsgEarthNet.uav[22] utilizationCountMissions 56
scalar OsgEarthNet.uav[22] utilizationCountManeuversMission 966
scalar OsgEarthNet.uav[22] utilizationCountManeuversMaintenance 112
scalar OsgEarthNet.uav[22] utilizationCountChargeState 56
scalar OsgEarthNet.uav[22] utilizationCountOverdrawnAfterMission 0
scalar OsgEarthNet.uav[22] utilizationCountIdleState 56
scalar OsgEarthNet.uav[22] utilizationFail 0
scalar OsgEarthNet.uav[22] simulationTime 259200
scalar OsgEarthNet.uav[23] utilizationSecMission 25629.874586594
scalar OsgEarthNet.uav[23] utilizationSecMaintenance 26268.123413406
scalar OsgEarthNet.uav[23] utilizationSecCharge 182890
scalar OsgEarthNet.uav[23] utilizationSecIdle 24412.001
scalar OsgEarthNet.uav[23] utilizationEnergyMission 123030.19257736
scalar OsgEarthNet.uav[23] utilizationEnergyMaintenance 121507.86653267
scalar OsgEarthNet.uav[23] utilizationEnergyCharge 238312.62597656
scalar OsgEarthNet.uav[23] utilizationEnergyOverdrawMission 0
scalar OsgEarthNet.uav[23] utilizationEnergyOverdrawMaintenance 0
scalar OsgEarthNet.uav[23] utilizationCountMissions 56
scalar OsgEarthNet.uav[23] utilizationCountManeuversMission 828
scalar OsgEarthNet.uav[23] utilizationCountManeuversMaintenance 112
scalar OsgEarthNet.uav[23] utilizationCountChargeState 55
scalar OsgEarthNet.uav[23] utilizationCountOverdrawnAfterMission 0
scalar OsgEarthNet.uav[23] utilizationCountIdleState 56
scalar OsgEarthNet.uav[23] utilizationFail 0
scalar OsgEarthNet.uav[23] simulationTime 259200
scalar OsgEarthNet.uav[24] utilizationSecMission 26463.344507658
scalar OsgEarthNet.uav[24] utilizationSecMaintenance 22144.647492342
scalar OsgEarthNet.uav[24] utilizationSecCharge 174820
scalar OsgEarthNet.uav[24] utilizationSecIdle 35772.007
scalar OsgEarthNet.uav[24] utilizationEnergyMission 127544.07508651
scalar OsgEarthNet.uav[24] utilizationEnergyMaintenance 101810.60412979
scalar OsgEarthNet.uav[24] utilizationEnergyCharge 229429.31103516
scalar OsgEarthNet.uav[24] utilizationEnergyOverdrawMission 0
scalar OsgEarthNet.uav[24] utilizationEnergyOverdrawMaintenance 0
scalar OsgEarthNet.uav[24] utilizationCountMissions 52
scalar OsgEarthNet.uav[24] utilizationCountManeuversMission 759
scalar OsgEarthNet.uav[24] utilizationCountManeuversMaintenance 105
scalar OsgEarthNet.uav[24] utilizationCountChargeState 52
scalar OsgEarthNet.uav[24] utilizationCountOverdrawnAfterMission 0
scalar OsgEarthNet.uav[24] utilizationCountIdleState 53
scalar OsgEarthNet.uav[24] utilizationFail 0
scalar OsgEarthNet.uav[24] simulationTime 259200
scalar OsgEarthNet.uav[25] utilizationSecMission 25653.552887002
scalar OsgEarthNet.uav[25] utilizationSecMaintenance 23134.444112998
scalar OsgEarthNet.uav[25] utilizationSecCharge 177500
scalar OsgEarthNet.uav[25] utilizationSecIdle 32912.002
scalar OsgEarthNet.uav[25] utilizationEnergyMission 128067.54207147
scalar OsgEarthNet.uav[25] utilizationEnergyMaintenance 107727.64804459
scalar OsgEarthNet.uav[25] utilizationEnergyCharge 230898.76586914
scalar OsgEarthNet.uav[25] utilizationEnergyOverdrawMission 0
scalar OsgEarthNet.uav[25] utilizationEnergyOverdrawMaintenance 0
scalar OsgEarthNet.uav[25] utilizationCountMissions 54
scalar OsgEarthNet.uav[25] utilizationCountManeuversMission 958
scalar OsgEarthNet.uav[25] utilizationCountManeuversMaintenance 109
scalar OsgEarthNet.uav[25] utilizationCountChargeState 54
scalar OsgEarthNet.uav[25] utilizationCountOverdrawnAfterMission 0
scalar OsgEarthNet.uav[25] utilizationCountIdleState 55
scalar OsgEarthNet.uav[25] utilizationFail 0
scalar OsgEarthNet.uav[25] simulationTime 259200
scalar OsgEarthNet.uav[26] utilizationSecMission 931.54602343181
scalar OsgEarthNet.uav[26] utilizationSecMaintenance 898.6960817453
scalar OsgEarthNet.uav[26] utilizationSecCharge 6840
scalar OsgEarthNet.uav[26] utilizationSecIdle 250529.75689482
scalar OsgEarthNet.uav[26] utilizationEnergyMission 4675.7013473511
scalar OsgEarthNet.uav[26] utilizationEnergyMaintenance 4472.6912460327
scalar OsgEarthNet.uav[26] utilizationEnergyCharge 9104.2138671875
scalar OsgEarthNet.uav[26] utilizationEnergyOverdrawMission 0
scalar OsgEarthNet.uav[26] utilizationEnergyOverdrawMaintenance 0
scalar OsgEarthNet.uav[26] utilizationCountMissions 2
scalar OsgEarthNet.uav[26] utilizationCountManeuversMission 30
scalar OsgEarthNet.uav[26] utilizationCountManeuversMaintenance 4
scalar OsgEarthNet.uav[26] utilizationCountChargeState 2
scalar OsgEarthNet.uav[26] utilizationCountOverdrawnAfterMission 0
scalar OsgEarthNet.uav[26] utilizationCountIdleState 3
scalar OsgEarthNet.uav[26] utilizationFail 0
scalar OsgEarthNet.uav[26] simulationTime 259200
scalar OsgEarthNet.uav[27] utilizationSecMission 26099.703850265
scalar OsgEarthNet.uav[27] utilizationSecMaintenance 21969.239345774
scalar OsgEarthNet.uav[27] utilizationSecCharge 174140
scalar OsgEarthNet.uav[27] utilizationSecIdle 36991.055803961
scalar OsgEarthNet.uav[27] utilizationEnergyMission 126103.63917645
scalar OsgEarthNet.uav[27] utilizationEnergyMaintenance 103078.71207809
scalar OsgEarthNet.uav[27] utilizationEnergyCharge 227794.34594727
scalar OsgEarthNet.uav[27] utilizationEnergyOverdrawMission 0
scalar OsgEarthNet.uav[27] utilizationEnergyOverdrawMaintenance 0
scalar OsgEarthNet.uav[27] utilizationCountMissions 52
scalar OsgEarthNet.uav[27] utilizationCountManeuversMission 840
scalar OsgEarthNet.uav[27] utilizationCountManeuversMaintenance 105
scalar OsgEarthNet.uav[27] utilizationCountChargeState 52
scalar OsgEarthNet.uav[27] utilizationCountOverdrawnAfterMission 0
scalar OsgEarthNet.uav[27] utilizationCountIdleState 53
scalar OsgEarthNet.uav[27] utilizationFail 0
scalar OsgEarthNet.uav[27] simulationTime 259200
scalar OsgEarthNet.uav[28] utilizationSecMission 14280.089113763
scalar OsgEarthNet.uav[28] utilizationSecMaintenance 12699.478248481
scalar OsgEarthNet.uav[28] utilizationSecCharge 96069.723580528
scalar OsgEarthNet.uav[28] utilizationSecIdle 136150.70805723
scalar OsgEarthNet.uav[28] utilizationEnergyMission 68724.587665558
scalar OsgEarthNet.uav[28] utilizationEnergyMaintenance 59603.060592651
scalar OsgEarthNet.uav[28] utilizationEnergyCharge 125142.72106934
scalar OsgEarthNet.uav[28] utilizationEnergyOverdrawMission 0
scalar OsgEarthNet.uav[28] utilizationEnergyOverdrawMaintenance 0
scalar OsgEarthNet.uav[28] utilizationCountMissions 30
scalar OsgEarthNet.uav[28] utilizationCountManeuversMission 439
scalar OsgEarthNet.uav[28] utilizationCountManeuversMaintenance 60
scalar OsgEarthNet.uav[28] utilizationCountChargeState 30
scalar OsgEarthNet.uav[28] utilizationCountOverdrawnAfterMission 0
scalar OsgEarthNet.uav[28] utilizationCountIdleState 30
scalar OsgEarthNet.uav[28] utilizationFail 0
scalar OsgEarthNet.uav[28] simulationTime 259200
scalar OsgEarthNet.uav[29] utilizationSecMission 23904.577839332
scalar OsgEarthNet.uav[29] utilizationSecMaintenance 23953.689525055
scalar OsgEarthNet.uav[29] utilizationSecCharge 173799.72263561
scalar OsgEarthNet.uav[29] utilizationSecIdle 37542.009
scalar OsgEarthNet.uav[29] utilizationEnergyMission 115297.04069519
scalar OsgEarthNet.uav[29] utilizationEnergyMaintenance 112029.10968399
scalar OsgEarthNet.uav[29] utilizationEnergyCharge 226697.43603516
scalar OsgEarthNet.uav[29] utilizationEnergyOverdrawMission 0
scalar OsgEarthNet.uav[29] utilizationEnergyOverdrawMaintenance 0
scalar OsgEarthNet.uav[29] utilizationCountMissions 53
scalar OsgEarthNet.uav[29] utilizationCountManeuversMission 818
scalar OsgEarthNet.uav[29] utilizationCountManeuversMaintenance 106
scalar OsgEarthNet.uav[29] utilizationCountChargeState 53
scalar OsgEarthNet.uav[29] utilizationCountOverdrawnAfterMission 0
scalar OsgEarthNet.uav[29] utilizationCountIdleState 53
scalar OsgEarthNet.uav[29] utilizationFail 0
scalar OsgEarthNet.uav[29] simulationTime 259200
scalar OsgEarthNet.uav[30] utilizationSecMission 27043.014502682
scalar OsgEarthNet.uav[30] utilizationSecMaintenance 23677.740526775
scalar OsgEarthNet.uav[30] utilizationSecCharge 182622.10052945
scalar OsgEarthNet.uav[30] utilizationSecIdle 25857.143441092
scalar OsgEarthNet.uav[30] utilizationEnergyMission 130398.37990952
scalar OsgEarthNet.uav[30] utilizationEnergyMaintenance 110446.77604294
scalar OsgEarthNet.uav[30] utilizationEnergyCharge 239361.59643555
scalar OsgEarthNet.uav[30] utilizationEnergyOverdrawMission 0
scalar OsgEarthNet.uav[30] utilizationEnergyOverdrawMaintenance 0
scalar OsgEarthNet.uav[30] utilizationCountMissions 55
scalar OsgEarthNet.uav[30] utilizationCountManeuversMission 816
scalar OsgEarthNet.uav[30] utilizationCountManeuversMaintenance 110
scalar OsgEarthNet.uav[30] utilizationCountChargeState 55
scalar OsgEarthNet.uav[30] utilizationCountOverdrawnAfterMission 0
scalar OsgEarthNet.uav[30] utilizationCountIdleState 55
scalar OsgEarthNet.uav[30] utilizationFail 0
scalar OsgEarthNet.uav[30] simulationTime 259200
scalar OsgEarthNet.uav[31] utilizationSecMission 19862.698325527
scalar OsgEarthNet.uav[31] utilizationSecMaintenance 20536.046367719
scalar OsgEarthNet.uav[31] utilizationSecCharge 148490
scalar OsgEarthNet.uav[31] utilizationSecIdle 70311.254306755
scalar OsgEarthNet.uav[31] utilizationEnergyMission 98613.276981354
scalar OsgEarthNet.uav[31] utilizationEnergyMaintenance 96398.051654816
scalar OsgEarthNet.uav[31] utilizationEnergyCharge 193328.06323242
scalar OsgEarthNet.uav[31] utilizationEnergyOverdrawMission 0
scalar OsgEarthNet.uav[31] utilizationEnergyOverdrawMaintenance 0
scalar OsgEarthNet.uav[31] utilizationCountMissions 45
scalar OsgEarthNet.uav[31] utilizationCountManeuversMission 684
scalar OsgEarthNet.uav[31] utilizationCountManeuversMaintenance 90
scalar OsgEarthNet.uav[31] utilizationCountChargeState 45
scalar OsgEarthNet.uav[31] utilizationCountOverdrawnAfterMission 0
scalar OsgEarthNet.uav[31] utilizationCountIdleState 46
scalar OsgEarthNet.uav[31] utilizationFail 0
scalar OsgEarthNet.uav[31] simulationTime 259200
scalar OsgEarthNet.uav[32] utilizationSecMission 26219.388168836
scalar OsgEarthNet.uav[32] utilizationSecMaintenance 23579.738227485
scalar OsgEarthNet.uav[32] utilizationSecCharge 179568.87160368
scalar OsgEarthNet.uav[32] utilizationSecIdle 29832.001
scalar OsgEarthNet.uav[32] utilizationEnergyMission 127998.9784584
scalar OsgEarthNet.uav[32] utilizationEnergyMaintenance 109844.8732872
scalar OsgEarthNet.uav[32] utilizationEnergyCharge 234276.25195312
scalar OsgEarthNet.uav[32] utilizationEnergyOverdrawMission 0
scalar OsgEarthNet.uav[32] utilizationEnergyOverdrawMaintenance 78.774444580078
scalar OsgEarthNet.uav[32] utilizationCountMissions 55
scalar OsgEarthNet.uav[32] utilizationCountManeuversMission 868
scalar OsgEarthNet.uav[32] utilizationCountManeuversMaintenance 110
scalar OsgEarthNet.uav[32] utilizationCountChargeState 55
scalar OsgEarthNet.uav[32] utilizationCountOverdrawnAfterMission 1
scalar OsgEarthNet.uav[32] utilizationCountIdleState 55
scalar OsgEarthNet.uav[32] utilizationFail 0
scalar OsgEarthNet.uav[32] simulationTime 259200
scalar OsgEarthNet.uav[33] utilizationSecMission 25918.686153494
scalar OsgEarthNet.uav[33] utilizationSecMaintenance 24158.914363574
scalar OsgEarthNet.uav[33] utilizationSecCharge 182250.39648293
scalar OsgEarthNet.uav[33] utilizationSecIdle 26872.002
scalar OsgEarthNet.uav[33] utilizationEnergyMission 125952.74379349
scalar OsgEarthNet.uav[33] utilizationEnergyMaintenance 113176.90840912
scalar OsgEarthNet.uav[33] utilizationEnergyCharge 238857.51831055
scalar OsgEarthNet.uav[33] utilizationEnergyOverdrawMission 0
scalar OsgEarthNet.uav[33] utilizationEnergyOverdrawMaintenance 0
scalar OsgEarthNet.uav[33] utilizationCountMissions 55
scalar OsgEarthNet.uav[33] utilizationCountManeuversMission 802
scalar OsgEarthNet.uav[33] utilizationCountManeuversMaintenance 110
scalar OsgEarthNet.uav[33] utilizationCountChargeState 55
scalar OsgEarthNet.uav[33] utilizationCountOverdrawnAfterMission 0
scalar OsgEarthNet.uav[33] utilizationCountIdleState 55
scalar OsgEarthNet.uav[33] utilizationFail 0
scalar OsgEarthNet.uav[33] simulationTime 259200
scalar OsgEarthNet.uav[34] utilizationSecMission 25655.444985248
scalar OsgEarthNet.uav[34] utilizationSecMaintenance 25896.240160841
scalar OsgEarthNet.uav[34] utilizationSecCharge 181196.30985391
scalar OsgEarthNet.uav[34] utilizationSecIdle 26452.004
scalar OsgEarthNet.uav[34] utilizationEnergyMission 123296.77109528
scalar OsgEarthNet.uav[34] utilizationEnergyMaintenance 119956.92298126
scalar OsgEarthNet.uav[34] utilizationEnergyCharge 236910.84490967
scalar OsgEarthNet.uav[34] utilizationEnergyOverdrawMission 0
scalar OsgEarthNet.uav[34] utilizationEnergyOverdrawMaintenance 0
scalar OsgEarthNet.uav[34] utilizationCountMissions 55
scalar OsgEarthNet.uav[34] utilizationCountManeuversMission 710
scalar OsgEarthNet.uav[34] utilizationCountManeuversMaintenance 110
scalar OsgEarthNet.uav[34] utilizationCountChargeState 55
scalar OsgEarthNet.uav[34] utilizationCountOverdrawnAfterMission 0
scalar OsgEarthNet.uav[34] utilizationCountIdleState 55
scalar OsgEarthNet.uav[34] utilizationFail 0
scalar OsgEarthNet.uav[34] simulationTime 259200
scalar OsgEarthNet.uav[35] utilizationSecMission 21913.144120324
scalar OsgEarthNet.uav[35] utilizationSecMaintenance 24786.446850996
scalar OsgEarthNet.uav[35] utilizationSecCharge 168910.98268139
scalar OsgEarthNet.uav[35] utilizationSecIdle 43589.42534729
scalar OsgEarthNet.uav[35] utilizationEnergyMission 104208.66815948
scalar OsgEarthNet.uav[35] utilizationEnergyMaintenance 115835.69096756
scalar OsgEarthNet.uav[35] utilizationEnergyCharge 221076.9465332
scalar OsgEarthNet.uav[35] utilizationEnergyOverdrawMission 0
scalar OsgEarthNet.uav[35] utilizationEnergyOverdrawMaintenance 0
scalar OsgEarthNet.uav[35] utilizationCountMissions 51
scalar OsgEarthNet.uav[35] utilizationCountManeuversMission 667
scalar OsgEarthNet.uav[35] utilizationCountManeuversMaintenance 102
scalar OsgEarthNet.uav[35] utilizationCountChargeState 51
scalar OsgEarthNet.uav[35] utilizationCountOverdrawnAfterMission 0
scalar OsgEarthNet.uav[35] utilizationCountIdleState 50
scalar OsgEarthNet.uav[35] utilizationFail 0
scalar OsgEarthNet.uav[35] simulationTime 259200
scalar OsgEarthNet.uav[36] utilizationSecMission 21086.161089783
scalar OsgEarthNet.uav[36] utilizationSecMaintenance 20393.29123442
scalar OsgEarthNet.uav[36] utilizationSecCharge 151984.64891645
scalar OsgEarthNet.uav[36] utilizationSecIdle 65735.897759343
scalar OsgEarthNet.uav[36] utilizationEnergyMission 103674.9332695
scalar OsgEarthNet.uav[36] utilizationEnergyMaintenance 94847.138370514
scalar OsgEarthNet.uav[36] utilizationEnergyCharge 199308.8840332
scalar OsgEarthNet.uav[36] utilizationEnergyOverdrawMission 0
scalar OsgEarthNet.uav[36] utilizationEnergyOverdrawMaintenance 0
scalar OsgEarthNet.uav[36] utilizationCountMissions 46
scalar OsgEarthNet.uav[36] utilizationCountManeuversMission 699
scalar OsgEarthNet.uav[36] utilizationCountManeuversMaintenance 92
scalar OsgEarthNet.uav[36] utilizationCountChargeState 46
scalar OsgEarthNet.uav[36] utilizationCountOverdrawnAfterMission 0
scalar OsgEarthNet.uav[36] utilizationCountIdleState 46
scalar OsgEarthNet.uav[36] utilizationFail 0
scalar OsgEarthNet.uav[36] simulationTime 259200
scalar OsgEarthNet.uav[37] utilizationSecMission 23183.578538415
scalar OsgEarthNet.uav[37] utilizationSecMaintenance 24892.924186171
scalar OsgEarthNet.uav[37] utilizationSecCharge 173163.48834042
scalar OsgEarthNet.uav[37] utilizationSecIdle 37960.007934998
scalar OsgEarthNet.uav[37] utilizationEnergyMission 112068.19150543
scalar OsgEarthNet.uav[37] utilizationEnergyMaintenance 115608.91108704
scalar OsgEarthNet.uav[37] utilizationEnergyCharge 227624.01074219
scalar OsgEarthNet.uav[37] utilizationEnergyOverdrawMission 0
scalar OsgEarthNet.uav[37] utilizationEnergyOverdrawMaintenance 174.13319396973
scalar OsgEarthNet.uav[37] utilizationCountMissions 52
scalar OsgEarthNet.uav[37] utilizationCountManeuversMission 687
scalar OsgEarthNet.uav[37] utilizationCountManeuversMaintenance 104
scalar OsgEarthNet.uav[37] utilizationCountChargeState 52
scalar OsgEarthNet.uav[37] utilizationCountOverdrawnAfterMission 1
scalar OsgEarthNet.uav[37] utilizationCountIdleState 52
scalar OsgEarthNet.uav[37] utilizationFail 0
scalar OsgEarthNet.uav[37] simulationTime 259200
scalar OsgEarthNet.uav[38] utilizationSecMission 25213.688451238
scalar OsgEarthNet.uav[38] utilizationSecMaintenance 22966.626256527
scalar OsgEarthNet.uav[38] utilizationSecCharge 174620.50918182
scalar OsgEarthNet.uav[38] utilizationSecIdle 36399.175110411
scalar OsgEarthNet.uav[38] utilizationEnergyMission 121688.8194313
scalar OsgEarthNet.uav[38] utilizationEnergyMaintenance 106124.77963257
scalar OsgEarthNet.uav[38] utilizationEnergyCharge 228784.54858398
scalar OsgEarthNet.uav[38] utilizationEnergyOverdrawMission 0
scalar OsgEarthNet.uav[38] utilizationEnergyOverdrawMaintenance 0
scalar OsgEarthNet.uav[38] utilizationCountMissions 52
scalar OsgEarthNet.uav[38] utilizationCountManeuversMission 714
scalar OsgEarthNet.uav[38] utilizationCountManeuversMaintenance 104
scalar OsgEarthNet.uav[38] utilizationCountChargeState 52
scalar OsgEarthNet.uav[38] utilizationCountOverdrawnAfterMission 0
scalar OsgEarthNet.uav[38] utilizationCountIdleState 52
scalar OsgEarthNet.uav[38] utilizationFail 0
scalar OsgEarthNet.uav[38] simulationTime 259200
scalar OsgEarthNet.uav[39] utilizationSecMission 25607.12052452
scalar OsgEarthNet.uav[39] utilizationSecMaintenance 26544.73542579
scalar OsgEarthNet.uav[39] utilizationSecCharge 186536.14304969
scalar OsgEarthNet.uav[39] utilizationSecIdle 20512
scalar OsgEarthNet.uav[39] utilizationEnergyMission 123201.06115723
scalar OsgEarthNet.uav[39] utilizationEnergyMaintenance 123683.95009613
scalar OsgEarthNet.uav[39] utilizationEnergyCharge 245044.16894531
scalar OsgEarthNet.uav[39] utilizationEnergyOverdrawMission 0
scalar OsgEarthNet.uav[39] utilizationEnergyOverdrawMaintenance 38.611938476562
scalar OsgEarthNet.uav[39] utilizationCountMissions 56
scalar OsgEarthNet.uav[39] utilizationCountManeuversMission 687
scalar OsgEarthNet.uav[39] utilizationCountManeuversMaintenance 111
scalar OsgEarthNet.uav[39] utilizationCountChargeState 56
scalar OsgEarthNet.uav[39] utilizationCountOverdrawnAfterMission 1
scalar OsgEarthNet.uav[39] utilizationCountIdleState 56
scalar OsgEarthNet.uav[39] utilizationFail 0
scalar OsgEarthNet.uav[39] simulationTime 259200
scalar OsgEarthNet.uav[40] utilizationSecMission 536.06111026321
scalar OsgEarthNet.uav[40] utilizationSecMaintenance 387.76056727994
scalar OsgEarthNet.uav[40] utilizationSecCharge 3190
scalar OsgEarthNet.uav[40] utilizationSecIdle 255086.17732246
scalar OsgEarthNet.uav[40] utilizationEnergyMission 2414.7747802734
scalar OsgEarthNet.uav[40] utilizationEnergyMaintenance 1810.8078231812
scalar OsgEarthNet.uav[40] utilizationEnergyCharge 4225.583984375
scalar OsgEarthNet.uav[40] utilizationEnergyOverdrawMission 0
scalar OsgEarthNet.uav[40] utilizationEnergyOverdrawMaintenance 0
scalar OsgEarthNet.uav[40] utilizationCountMissions 1
scalar OsgEarthNet.uav[40] utilizationCountManeuversMission 8
scalar OsgEarthNet.uav[40] utilizationCountManeuversMaintenance 2
scalar OsgEarthNet.uav[40] utilizationCountChargeState 1
scalar OsgEarthNet.uav[40] utilizationCountOverdrawnAfterMission 0
scalar OsgEarthNet.uav[40] utilizationCountIdleState 2
scalar OsgEarthNet.uav[40] utilizationFail 0
scalar OsgEarthNet.uav[40] simulationTime 259200
scalar OsgEarthNet.uav[41] utilizationSecMission 20805.419026528
scalar OsgEarthNet.uav[41] utilizationSecMaintenance 17835.681489155
scalar OsgEarthNet.uav[41] utilizationSecCharge 138990
scalar OsgEarthNet.uav[41] utilizationSecIdle 81568.898484317
scalar OsgEarthNet.uav[41] utilizationEnergyMission 100405.46806335
scalar OsgEarthNet.uav[41] utilizationEnergyMaintenance 82897.753795624
scalar OsgEarthNet.uav[41] utilizationEnergyCharge 181074.6015625
scalar OsgEarthNet.uav[41] utilizationEnergyOverdrawMission 0
scalar OsgEarthNet.uav[41] utilizationEnergyOverdrawMaintenance 0
scalar OsgEarthNet.uav[41] utilizationCountMissions 42
scalar OsgEarthNet.uav[41] utilizationCountManeuversMission 582
scalar OsgEarthNet.uav[41] utilizationCountManeuversMaintenance 84
scalar OsgEarthNet.uav[41] utilizationCountChargeState 42
scalar OsgEarthNet.uav[41] utilizationCountOverdrawnAfterMission 0
scalar OsgEarthNet.uav[41] utilizationCountIdleState 43
scalar OsgEarthNet.uav[41] utilizationFail 0
scalar OsgEarthNet.uav[41] simulationTime 259200
scalar OsgEarthNet.uav[42] utilizationSecMission 14099.32559056
scalar OsgEarthNet.uav[42] utilizationSecMaintenance 15766.71207822
scalar OsgEarthNet.uav[42] utilizationSecCharge 109371.95433122
scalar OsgEarthNet.uav[42] utilizationSecIdle 119962.007
scalar OsgEarthNet.uav[42] utilizationEnergyMission 69406.930343628
scalar OsgEarthNet.uav[42] utilizationEnergyMaintenance 73756.282768249
scalar OsgEarthNet.uav[42] utilizationEnergyCharge 142421.17041016
scalar OsgEarthNet.uav[42] utilizationEnergyOverdrawMission 0
scalar OsgEarthNet.uav[42] utilizationEnergyOverdrawMaintenance 0
scalar OsgEarthNet.uav[42] utilizationCountMissions 34
scalar OsgEarthNet.uav[42] utilizationCountManeuversMission 554
scalar OsgEarthNet.uav[42] utilizationCountManeuversMaintenance 68
scalar OsgEarthNet.uav[42] utilizationCountChargeState 34
scalar OsgEarthNet.uav[42] utilizationCountOverdrawnAfterMission 0
scalar OsgEarthNet.uav[42] utilizationCountIdleState 34
scalar OsgEarthNet.uav[42] utilizationFail 0
scalar OsgEarthNet.uav[42] simulationTime 259200
scalar OsgEarthNet.uav[43] utilizationSecMission 22801.412567605
scalar OsgEarthNet.uav[43] utilizationSecMaintenance 22066.639443994
scalar OsgEarthNet.uav[43] utilizationSecCharge 161684.88058774
scalar OsgEarthNet.uav[43] utilizationSecIdle 52647.066400661
scalar OsgEarthNet.uav[43] utilizationEnergyMission 109737.52366257
scalar OsgEarthNet.uav[43] utilizationEnergyMaintenance 103649.98426056
scalar OsgEarthNet.uav[43] utilizationEnergyCharge 211967.95727539
scalar OsgEarthNet.uav[43] utilizationEnergyOverdrawMission 0
scalar OsgEarthNet.uav[43] utilizationEnergyOverdrawMaintenance 0
scalar OsgEarthNet.uav[43] utilizationCountMissions 49
scalar OsgEarthNet.uav[43] utilizationCountManeuversMission 639
scalar OsgEarthNet.uav[43] utilizationCountManeuversMaintenance 98
scalar OsgEarthNet.uav[43] utilizationCountChargeState 49
scalar OsgEarthNet.uav[43] utilizationCountOverdrawnAfterMission 0
scalar OsgEarthNet.uav[43] utilizationCountIdleState 49
scalar OsgEarthNet.uav[43] utilizationFail 0
scalar OsgEarthNet.uav[43] simulationTime 259200
scalar OsgEarthNet.uav[44] utilizationSecMission 7303.8164683035
scalar OsgEarthNet.uav[44] utilizationSecMaintenance 6636.4097906236
scalar OsgEarthNet.uav[44] utilizationSecCharge 47989.852598526
scalar OsgEarthNet.uav[44] utilizationSecIdle 197269.92014255
scalar OsgEarthNet.uav[44] utilizationEnergyMission 34488.607280731
scalar OsgEarthNet.uav[44] utilizationEnergyMaintenance 30472.195056915
scalar OsgEarthNet.uav[44] utilizationEnergyCharge 63197.692382812
scalar OsgEarthNet.uav[44] utilizationEnergyOverdrawMission 0
scalar OsgEarthNet.uav[44] utilizationEnergyOverdrawMaintenance 0
scalar OsgEarthNet.uav[44] utilizationCountMissions 15
scalar OsgEarthNet.uav[44] utilizationCountManeuversMission 151
scalar OsgEarthNet.uav[44] utilizationCountManeuversMaintenance 30
scalar OsgEarthNet.uav[44] utilizationCountChargeState 15
scalar OsgEarthNet.uav[44] utilizationCountOverdrawnAfterMission 0
scalar OsgEarthNet.uav[44] utilizationCountIdleState 15
scalar OsgEarthNet.uav[44] utilizationFail 0
scalar OsgEarthNet.uav[44] simulationTime 259200
scalar OsgEarthNet.uav[45] utilizationSecMission 21638.110421653
scalar OsgEarthNet.uav[45] utilizationSecMaintenance 19245.867433403
scalar OsgEarthNet.uav[45] utilizationSecCharge 148989.31578254
scalar OsgEarthNet.uav[45] utilizationSecIdle 69326.705362404
scalar OsgEarthNet.uav[45] utilizationEnergyMission 106041.29694748
scalar OsgEarthNet.uav[45] utilizationEnergyMaintenance 89841.193855286
scalar OsgEarthNet.uav[45] utilizationEnergyCharge 194517.14038086
scalar OsgEarthNet.uav[45] utilizationEnergyOverdrawMission 0
scalar OsgEarthNet.uav[45] utilizationEnergyOverdrawMaintenance 0
scalar OsgEarthNet.uav[45] utilizationCountMissions 45
scalar OsgEarthNet.uav[45] utilizationCountManeuversMission 741
scalar OsgEarthNet.uav[45] utilizationCountManeuversMaintenance 90
scalar OsgEarthNet.uav[45] utilizationCountChargeState 45
scalar OsgEarthNet.uav[45] utilizationCountOverdrawnAfterMission 0
scalar OsgEarthNet.uav[45] utilizationCountIdleState 45
scalar OsgEarthNet.uav[45] utilizationFail 0
scalar OsgEarthNet.uav[45] simulationTime 259200
scalar OsgEarthNet.uav[46] utilizationSecMission 18679.110533964
scalar OsgEarthNet.uav[46] utilizationSecMaintenance 19023.814072163
scalar OsgEarthNet.uav[46] utilizationSecCharge 134161.82148848
scalar OsgEarthNet.uav[46] utilizationSecIdle 87335.252905395
scalar OsgEarthNet.uav[46] utilizationEnergyMission 90804.046161652
scalar OsgEarthNet.uav[46] utilizationEnergyMaintenance 88764.011814117
scalar OsgEarthNet.uav[46] utilizationEnergyCharge 175883.98193359
scalar OsgEarthNet.uav[46] utilizationEnergyOverdrawMission 0
scalar OsgEarthNet.uav[46] utilizationEnergyOverdrawMaintenance 0
scalar OsgEarthNet.uav[46] utilizationCountMissions 41
scalar OsgEarthNet.uav[46] utilizationCountManeuversMission 552
scalar OsgEarthNet.uav[46] utilizationCountManeuversMaintenance 82
scalar OsgEarthNet.uav[46] utilizationCountChargeState 41
scalar OsgEarthNet.uav[46] utilizationCountOverdrawnAfterMission 0
scalar OsgEarthNet.uav[46] utilizationCountIdleState 41
scalar OsgEarthNet.uav[46] utilizationFail 0
scalar OsgEarthNet.uav[46] simulationTime 259200
scalar OsgEarthNet.uav[47] utilizationSecMission 2833.2843973865
scalar OsgEarthNet.uav[47] utilizationSecMaintenance 2166.7924600669
scalar OsgEarthNet.uav[47] utilizationSecCharge 17130
scalar OsgEarthNet.uav[47] utilizationSecIdle 237069.92214255
scalar OsgEarthNet.uav[47] utilizationEnergyMission 13717.03534376
scalar OsgEarthNet.uav[47] utilizationEnergyMaintenance 9995.0237083435
scalar OsgEarthNet.uav[47] utilizationEnergyCharge 22711.591308594
scalar OsgEarthNet.uav[47] utilizationEnergyOverdrawMission 0
scalar OsgEarthNet.uav[47] utilizationEnergyOverdrawMaintenance 0
scalar OsgEarthNet.uav[47] utilizationCountMissions 5
scalar OsgEarthNet.uav[47] utilizationCountManeuversMission 120
scalar OsgEarthNet.uav[47] utilizationCountManeuversMaintenance 11
scalar OsgEarthNet.uav[47] utilizationCountChargeState 5
scalar OsgEarthNet.uav[47] utilizationCountOverdrawnAfterMission 0
scalar OsgEarthNet.uav[47] utilizationCountIdleState 6
scalar OsgEarthNet.uav[47] utilizationFail 0
scalar OsgEarthNet.uav[47] simulationTime 259200
scalar OsgEarthNet.uav[48] utilizationSecMission 13130.863433335
scalar OsgEarthNet.uav[48] utilizationSecMaintenance 12502.132353569
scalar OsgEarthNet.uav[48] utilizationSecCharge 90342.292461043
scalar OsgEarthNet.uav[48] utilizationSecIdle 143224.71075205
scalar OsgEarthNet.uav[48] utilizationEnergyMission 64084.305912018
scalar OsgEarthNet.uav[48] utilizationEnergyMaintenance 58011.682033539
scalar OsgEarthNet.uav[48] utilizationEnergyCharge 118129.65820312
scalar OsgEarthNet.uav[48] utilizationEnergyOverdrawMission 0
scalar OsgEarthNet.uav[48] utilizationEnergyOverdrawMaintenance 0
scalar OsgEarthNet.uav[48] utilizationCountMissions 28
scalar OsgEarthNet.uav[48] utilizationCountManeuversMission 395
scalar OsgEarthNet.uav[48] utilizationCountManeuversMaintenance 56
scalar OsgEarthNet.uav[48] utilizationCountChargeState 28
scalar OsgEarthNet.uav[48] utilizationCountOverdrawnAfterMission 0
scalar OsgEarthNet.uav[48] utilizationCountIdleState 28
scalar OsgEarthNet.uav[48] utilizationFail 0
scalar OsgEarthNet.uav[48] simulationTime 259200
scalar OsgEarthNet.uav[49] utilizationSecMission 14121.71483062
scalar OsgEarthNet.uav[49] utilizationSecMaintenance 14019.075205878
scalar OsgEarthNet.uav[49] utilizationSecCharge 102928.25870784
scalar OsgEarthNet.uav[49] utilizationSecIdle 128130.95025566
scalar OsgEarthNet.uav[49] utilizationEnergyMission 69766.378517151
scalar OsgEarthNet.uav[49] utilizationEnergyMaintenance 65794.631175995
scalar OsgEarthNet.uav[49] utilizationEnergyCharge 135389.25366211
scalar OsgEarthNet.uav[49] utilizationEnergyOverdrawMission 0
scalar OsgEarthNet.uav[49] utilizationEnergyOverdrawMaintenance 0
scalar OsgEarthNet.uav[49] utilizationCountMissions 31
scalar OsgEarthNet.uav[49] utilizationCountManeuversMission 458
scalar OsgEarthNet.uav[49] utilizationCountManeuversMaintenance 62
scalar OsgEarthNet.uav[49] utilizationCountChargeState 31
scalar OsgEarthNet.uav[49] utilizationCountOverdrawnAfterMission 0
scalar OsgEarthNet.uav[49] utilizationCountIdleState 31
scalar OsgEarthNet.uav[49] utilizationFail 0
scalar OsgEarthNet.uav[49] simulationTime 259200
scalar OsgEarthNet.uav[50] utilizationSecMission 10799.112731901
scalar OsgEarthNet.uav[50] utilizationSecMaintenance 9973.7606761845
scalar OsgEarthNet.uav[50] utilizationSecCharge 75610
scalar OsgEarthNet.uav[50] utilizationSecIdle 162817.12559191
scalar OsgEarthNet.uav[50] utilizationEnergyMission 53231.366535187
scalar OsgEarthNet.uav[50] utilizationEnergyMaintenance 45508.66714859
scalar OsgEarthNet.uav[50] utilizationEnergyCharge 98880.502441406
scalar OsgEarthNet.uav[50] utilizationEnergyOverdrawMission 0
scalar OsgEarthNet.uav[50] utilizationEnergyOverdrawMaintenance 0
scalar OsgEarthNet.uav[50] utilizationCountMissions 23
scalar OsgEarthNet.uav[50] utilizationCountManeuversMission 396
scalar OsgEarthNet.uav[50] utilizationCountManeuversMaintenance 46
scalar OsgEarthNet.uav[50] utilizationCountChargeState 23
scalar OsgEarthNet.uav[50] utilizationCountOverdrawnAfterMission 0
scalar OsgEarthNet.uav[50] utilizationCountIdleState 23
scalar OsgEarthNet.uav[50] utilizationFail 0
scalar OsgEarthNet.uav[50] simulationTime 259200
scalar OsgEarthNet.uav[51] utilizationSecMission 11429.52333079
scalar OsgEarthNet.uav[51] utilizationSecMaintenance 11720.199234055
scalar OsgEarthNet.uav[51] utilizationSecCharge 83820
scalar OsgEarthNet.uav[51] utilizationSecIdle 152230.27643515
scalar OsgEarthNet.uav[51] utilizationEnergyMission 56490.611339569
scalar OsgEarthNet.uav[51] utilizationEnergyMaintenance 54938.010753632
scalar OsgEarthNet.uav[51] utilizationEnergyCharge 110230.74926758
scalar OsgEarthNet.uav[51] utilizationEnergyOverdrawMission 0
scalar OsgEarthNet.uav[51] utilizationEnergyOverdrawMaintenance 0
scalar OsgEarthNet.uav[51] utilizationCountMissions 25
scalar OsgEarthNet.uav[51] utilizationCountManeuversMission 382
scalar OsgEarthNet.uav[51] utilizationCountManeuversMaintenance 50
scalar OsgEarthNet.uav[51] utilizationCountChargeState 25
scalar OsgEarthNet.uav[51] utilizationCountOverdrawnAfterMission 0
scalar OsgEarthNet.uav[51] utilizationCountIdleState 25
scalar OsgEarthNet.uav[51] utilizationFail 0
scalar OsgEarthNet.uav[51] simulationTime 259200
scalar OsgEarthNet.uav[52] utilizationSecMission 22452.88203923
scalar OsgEarthNet.uav[52] utilizationSecMaintenance 20465.063421294
scalar OsgEarthNet.uav[52] utilizationSecCharge 155180
scalar OsgEarthNet.uav[52] utilizationSecIdle 61102.053539476
scalar OsgEarthNet.uav[52] utilizationEnergyMission 108175.46287918
scalar OsgEarthNet.uav[52] utilizationEnergyMaintenance 94726.882881164
scalar OsgEarthNet.uav[52] utilizationEnergyCharge 202390.39282227
scalar OsgEarthNet.uav[52] utilizationEnergyOverdrawMission 0
scalar OsgEarthNet.uav[52] utilizationEnergyOverdrawMaintenance 0
scalar OsgEarthNet.uav[52] utilizationCountMissions 47
scalar OsgEarthNet.uav[52] utilizationCountManeuversMission 648
scalar OsgEarthNet.uav[52] utilizationCountManeuversMaintenance 94
scalar OsgEarthNet.uav[52] utilizationCountChargeState 47
scalar OsgEarthNet.uav[52] utilizationCountOverdrawnAfterMission 0
scalar OsgEarthNet.uav[52] utilizationCountIdleState 48
scalar OsgEarthNet.uav[52] utilizationFail 0
scalar OsgEarthNet.uav[52] simulationTime 259200
scalar OsgEarthNet.uav[53] utilizationSecMission 9461.5467729646
scalar OsgEarthNet.uav[53] utilizationSecMaintenance 8832.0224353872
scalar OsgEarthNet.uav[53] utilizationSecCharge 66000
scalar OsgEarthNet.uav[53] utilizationSecIdle 174906.42979165
scalar OsgEarthNet.uav[53] utilizationEnergyMission 46922.790336609
scalar OsgEarthNet.uav[53] utilizationEnergyMaintenance 40709.504833221
scalar OsgEarthNet.uav[53] utilizationEnergyCharge 86309.149414062
scalar OsgEarthNet.uav[53] utilizationEnergyOverdrawMission 0
scalar OsgEarthNet.uav[53] utilizationEnergyOverdrawMaintenance 0
scalar OsgEarthNet.uav[53] utilizationCountMissions 20
scalar OsgEarthNet.uav[53] utilizationCountManeuversMission 296
scalar OsgEarthNet.uav[53] utilizationCountManeuversMaintenance 40
scalar OsgEarthNet.uav[53] utilizationCountChargeState 20
scalar OsgEarthNet.uav[53] utilizationCountOverdrawnAfterMission 0
scalar OsgEarthNet.uav[53] utilizationCountIdleState 20
scalar OsgEarthNet.uav[53] utilizationFail 0
scalar OsgEarthNet.uav[53] simulationTime 259200
scalar OsgEarthNet.uav[54] utilizationSecMission 25032.490463793
scalar OsgEarthNet.uav[54] utilizationSecMaintenance 20874.879637889
scalar OsgEarthNet.uav[54] utilizationSecCharge 164002.6106154
scalar OsgEarthNet.uav[54] utilizationSecIdle 49290.018282913
scalar OsgEarthNet.uav[54] utilizationEnergyMission 118964.51666641
scalar OsgEarthNet.uav[54] utilizationEnergyMaintenance 97448.554134369
scalar OsgEarthNet.uav[54] utilizationEnergyCharge 214960.52661133
scalar OsgEarthNet.uav[54] utilizationEnergyOverdrawMission 0
scalar OsgEarthNet.uav[54] utilizationEnergyOverdrawMaintenance 57.122169494629
scalar OsgEarthNet.uav[54] utilizationCountMissions 50
scalar OsgEarthNet.uav[54] utilizationCountManeuversMission 767
scalar OsgEarthNet.uav[54] utilizationCountManeuversMaintenance 100
scalar OsgEarthNet.uav[54] utilizationCountChargeState 50
scalar OsgEarthNet.uav[54] utilizationCountOverdrawnAfterMission 1
scalar OsgEarthNet.uav[54] utilizationCountIdleState 49
scalar OsgEarthNet.uav[54] utilizationFail 0
scalar OsgEarthNet.uav[54] simulationTime 259200
scalar OsgEarthNet.uav[55] utilizationSecMission 16792.417595956
scalar OsgEarthNet.uav[55] utilizationSecMaintenance 15119.791782948
scalar OsgEarthNet.uav[55] utilizationSecCharge 114900
scalar OsgEarthNet.uav[55] utilizationSecIdle 112387.7896211
scalar OsgEarthNet.uav[55] utilizationEnergyMission 81272.51832962
scalar OsgEarthNet.uav[55] utilizationEnergyMaintenance 71199.931625366
scalar OsgEarthNet.uav[55] utilizationEnergyCharge 151442.60107422
scalar OsgEarthNet.uav[55] utilizationEnergyOverdrawMission 0
scalar OsgEarthNet.uav[55] utilizationEnergyOverdrawMaintenance 246.39512634277
scalar OsgEarthNet.uav[55] utilizationCountMissions 34
scalar OsgEarthNet.uav[55] utilizationCountManeuversMission 449
scalar OsgEarthNet.uav[55] utilizationCountManeuversMaintenance 68
scalar OsgEarthNet.uav[55] utilizationCountChargeState 34
scalar OsgEarthNet.uav[55] utilizationCountOverdrawnAfterMission 1
scalar OsgEarthNet.uav[55] utilizationCountIdleState 32
scalar OsgEarthNet.uav[55] utilizationFail 0
scalar OsgEarthNet.uav[55] simulationTime 259200
scalar OsgEarthNet.uav[56] utilizationSecMission 20401.634617303
scalar OsgEarthNet.uav[56] utilizationSecMaintenance 17570.7179307
scalar OsgEarthNet.uav[56] utilizationSecCharge 136183.79170261
scalar OsgEarthNet.uav[56] utilizationSecIdle 85043.854749386
scalar OsgEarthNet.uav[56] utilizationEnergyMission 100813.6088562
scalar OsgEarthNet.uav[56] utilizationEnergyMaintenance 81435.871089935
scalar OsgEarthNet.uav[56] utilizationEnergyCharge 177804.49389648
scalar OsgEarthNet.uav[56] utilizationEnergyOverdrawMission 0
scalar OsgEarthNet.uav[56] utilizationEnergyOverdrawMaintenance 0
scalar OsgEarthNet.uav[56] utilizationCountMissions 42
scalar OsgEarthNet.uav[56] utilizationCountManeuversMission 674
scalar OsgEarthNet.uav[56] utilizationCountManeuversMaintenance 84
scalar OsgEarthNet.uav[56] utilizationCountChargeState 42
scalar OsgEarthNet.uav[56] utilizationCountOverdrawnAfterMission 0
scalar OsgEarthNet.uav[56] utilizationCountIdleState 40
scalar OsgEarthNet.uav[56] utilizationFail 0
scalar OsgEarthNet.uav[56] simulationTime 259200
scalar OsgEarthNet.uav[57] utilizationSecMission 27499.518922942
scalar OsgEarthNet.uav[57] utilizationSecMaintenance 23218.182887792
scalar OsgEarthNet.uav[57] utilizationSecCharge 182334.98210305
scalar OsgEarthNet.uav[57] utilizationSecIdle 26147.315086215
scalar OsgEarthNet.uav[57] utilizationEnergyMission 133908.38119888
scalar OsgEarthNet.uav[57] utilizationEnergyMaintenance 106799.6664238
scalar OsgEarthNet.uav[57] utilizationEnergyCharge 238764.85180664
scalar OsgEarthNet.uav[57] utilizationEnergyOverdrawMission 0
scalar OsgEarthNet.uav[57] utilizationEnergyOverdrawMaintenance 0
scalar OsgEarthNet.uav[57] utilizationCountMissions 55
scalar OsgEarthNet.uav[57] utilizationCountManeuversMission 818
scalar OsgEarthNet.uav[57] utilizationCountManeuversMaintenance 110
scalar OsgEarthNet.uav[57] utilizationCountChargeState 55
scalar OsgEarthNet.uav[57] utilizationCountOverdrawnAfterMission 0
scalar OsgEarthNet.uav[57] utilizationCountIdleState 53
scalar OsgEarthNet.uav[57] utilizationFail 0
scalar OsgEarthNet.uav[57] simulationTime 259200
scalar OsgEarthNet.uav[58] utilizationSecMission 21793.34316349
scalar OsgEarthNet.uav[58] utilizationSecMaintenance 19595.877241962
scalar OsgEarthNet.uav[58] utilizationSecCharge 149780
scalar OsgEarthNet.uav[58] utilizationSecIdle 68030.778594549
scalar OsgEarthNet.uav[58] utilizationEnergyMission 104871.53128815
scalar OsgEarthNet.uav[58] utilizationEnergyMaintenance 91028.910133362
scalar OsgEarthNet.uav[58] utilizationEnergyCharge 195763.58081055
scalar OsgEarthNet.uav[58] utilizationEnergyOverdrawMission 0
scalar OsgEarthNet.uav[58] utilizationEnergyOverdrawMaintenance 0
scalar OsgEarthNet.uav[58] utilizationCountMissions 45
scalar OsgEarthNet.uav[58] utilizationCountManeuversMission 640
scalar OsgEarthNet.uav[58] utilizationCountManeuversMaintenance 90
scalar OsgEarthNet.uav[58] utilizationCountChargeState 45
scalar OsgEarthNet.uav[58] utilizationCountOverdrawnAfterMission 0
scalar OsgEarthNet.uav[58] utilizationCountIdleState 44
scalar OsgEarthNet.uav[58] utilizationFail 0
scalar OsgEarthNet.uav[58] simulationTime 259200
scalar OsgEarthNet.uav[59] utilizationSecMission 20619.973698699
scalar OsgEarthNet.uav[59] utilizationSecMaintenance 17600.65277929
scalar OsgEarthNet.uav[59] utilizationSecCharge 138740
scalar OsgEarthNet.uav[59] utilizationSecIdle 82239.372522011
scalar OsgEarthNet.uav[59] utilizationEnergyMission 99483.541873932
scalar OsgEarthNet.uav[59] utilizationEnergyMaintenance 81204.670204163
scalar OsgEarthNet.uav[59] utilizationEnergyCharge 181311.43286133
scalar OsgEarthNet.uav[59] utilizationEnergyOverdrawMission 0
scalar OsgEarthNet.uav[59] utilizationEnergyOverdrawMaintenance 222.42552185059
scalar OsgEarthNet.uav[59] utilizationCountMissions 42
scalar OsgEarthNet.uav[59] utilizationCountManeuversMission 653
scalar OsgEarthNet.uav[59] utilizationCountManeuversMaintenance 84
scalar OsgEarthNet.uav[59] utilizationCountChargeState 42
scalar OsgEarthNet.uav[59] utilizationCountOverdrawnAfterMission 1
scalar OsgEarthNet.uav[59] utilizationCountIdleState 40
scalar OsgEarthNet.uav[59] utilizationFail 0
scalar OsgEarthNet.uav[59] simulationTime 259200
scalar OsgEarthNet.uav[60] utilizationSecMission 27362.257604788
scalar OsgEarthNet.uav[60] utilizationSecMaintenance 22946.544795126
scalar OsgEarthNet.uav[60] utilizationSecCharge 180660
scalar OsgEarthNet.uav[60] utilizationSecIdle 28231.196600086
scalar OsgEarthNet.uav[60] utilizationEnergyMission 134583.26405648
scalar OsgEarthNet.uav[60] utilizationEnergyMaintenance 106519.298172
scalar OsgEarthNet.uav[60] utilizationEnergyCharge 235539.96386719
scalar OsgEarthNet.uav[60] utilizationEnergyOverdrawMission 0
scalar OsgEarthNet.uav[60] utilizationEnergyOverdrawMaintenance 0
scalar OsgEarthNet.uav[60] utilizationCountMissions 55
scalar OsgEarthNet.uav[60] utilizationCountManeuversMission 863
scalar OsgEarthNet.uav[60] utilizationCountManeuversMaintenance 111
scalar OsgEarthNet.uav[60] utilizationCountChargeState 55
scalar OsgEarthNet.uav[60] utilizationCountOverdrawnAfterMission 0
scalar OsgEarthNet.uav[60] utilizationCountIdleState 52
scalar OsgEarthNet.uav[60] utilizationFail 0
scalar OsgEarthNet.uav[60] simulationTime 259200
scalar OsgEarthNet.uav[61] utilizationSecMission 19342.386690884
scalar OsgEarthNet.uav[61] utilizationSecMaintenance 21161.327653684
scalar OsgEarthNet.uav[61] utilizationSecCharge 147330
scalar OsgEarthNet.uav[61] utilizationSecIdle 71366.284655432
scalar OsgEarthNet.uav[61] utilizationEnergyMission 95253.027431488
scalar OsgEarthNet.uav[61] utilizationEnergyMaintenance 99872.701374054
scalar OsgEarthNet.uav[61] utilizationEnergyCharge 194058.17504883
scalar OsgEarthNet.uav[61] utilizationEnergyOverdrawMission 0
scalar OsgEarthNet.uav[61] utilizationEnergyOverdrawMaintenance 392.2629699707
scalar OsgEarthNet.uav[61] utilizationCountMissions 45
scalar OsgEarthNet.uav[61] utilizationCountManeuversMission 682
scalar OsgEarthNet.uav[61] utilizationCountManeuversMaintenance 90
scalar OsgEarthNet.uav[61] utilizationCountChargeState 45
scalar OsgEarthNet.uav[61] utilizationCountOverdrawnAfterMission 1
scalar OsgEarthNet.uav[61] utilizationCountIdleState 36
scalar OsgEarthNet.uav[61] utilizationFail 0
scalar OsgEarthNet.uav[61] simulationTime 259200
scalar OsgEarthNet.uav[62] utilizationSecMission 23266.847815835
scalar OsgEarthNet.uav[62] utilizationSecMaintenance 20030.505853804
scalar OsgEarthNet.uav[62] utilizationSecCharge 156400.64533036
scalar OsgEarthNet.uav[62] utilizationSecIdle 59502
scalar OsgEarthNet.uav[62] utilizationEnergyMission 110396.32904434
scalar OsgEarthNet.uav[62] utilizationEnergyMaintenance 92840.273097992
scalar OsgEarthNet.uav[62] utilizationEnergyCharge 205507.75683594
scalar OsgEarthNet.uav[62] utilizationEnergyOverdrawMission 0
scalar OsgEarthNet.uav[62] utilizationEnergyOverdrawMaintenance 0
scalar OsgEarthNet.uav[62] utilizationCountMissions 47
scalar OsgEarthNet.uav[62] utilizationCountManeuversMission 669
scalar OsgEarthNet.uav[62] utilizationCountManeuversMaintenance 94
scalar OsgEarthNet.uav[62] utilizationCountChargeState 47
scalar OsgEarthNet.uav[62] utilizationCountOverdrawnAfterMission 0
scalar OsgEarthNet.uav[62] utilizationCountIdleState 44
scalar OsgEarthNet.uav[62] utilizationFail 0
scalar OsgEarthNet.uav[62] simulationTime 259200
scalar OsgEarthNet.uav[63] utilizationSecMission 22269.676004852
scalar OsgEarthNet.uav[63] utilizationSecMaintenance 22975.128350018
scalar OsgEarthNet.uav[63] utilizationSecCharge 161892.63843883
scalar OsgEarthNet.uav[63] utilizationSecIdle 52062.556206304
scalar OsgEarthNet.uav[63] utilizationEnergyMission 106502.81526947
scalar OsgEarthNet.uav[63] utilizationEnergyMaintenance 106228.1340065
scalar OsgEarthNet.uav[63] utilizationEnergyCharge 213541.7890625
scalar OsgEarthNet.uav[63] utilizationEnergyOverdrawMission 0
scalar OsgEarthNet.uav[63] utilizationEnergyOverdrawMaintenance 0
scalar OsgEarthNet.uav[63] utilizationCountMissions 49
scalar OsgEarthNet.uav[63] utilizationCountManeuversMission 665
scalar OsgEarthNet.uav[63] utilizationCountManeuversMaintenance 98
scalar OsgEarthNet.uav[63] utilizationCountChargeState 49
scalar OsgEarthNet.uav[63] utilizationCountOverdrawnAfterMission 0
scalar OsgEarthNet.uav[63] utilizationCountIdleState 41
scalar OsgEarthNet.uav[63] utilizationFail 0
scalar OsgEarthNet.uav[63] simulationTime 259200
scalar OsgEarthNet.uav[64] utilizationSecMission 23527.523698527
scalar OsgEarthNet.uav[64] utilizationSecMaintenance 21536.061803479
scalar OsgEarthNet.uav[64] utilizationSecCharge 164300
scalar OsgEarthNet.uav[64] utilizationSecIdle 49836.413497994
scalar OsgEarthNet.uav[64] utilizationEnergyMission 113941.99319077
scalar OsgEarthNet.uav[64] utilizationEnergyMaintenance 100796.1414032
scalar OsgEarthNet.uav[64] utilizationEnergyCharge 215956.30517578
scalar OsgEarthNet.uav[64] utilizationEnergyOverdrawMission 0
scalar OsgEarthNet.uav[64] utilizationEnergyOverdrawMaintenance 0
scalar OsgEarthNet.uav[64] utilizationCountMissions 50
scalar OsgEarthNet.uav[64] utilizationCountManeuversMission 762
scalar OsgEarthNet.uav[64] utilizationCountManeuversMaintenance 100
scalar OsgEarthNet.uav[64] utilizationCountChargeState 50
scalar OsgEarthNet.uav[64] utilizationCountOverdrawnAfterMission 0
scalar OsgEarthNet.uav[64] utilizationCountIdleState 42
scalar OsgEarthNet.uav[64] utilizationFail 0
scalar OsgEarthNet.uav[64] simulationTime 259200
scalar OsgEarthNet.uav[65] utilizationSecMission 22012.535454129
scalar OsgEarthNet.uav[65] utilizationSecMaintenance 24302.505404104
scalar OsgEarthNet.uav[65] utilizationSecCharge 167610
scalar OsgEarthNet.uav[65] utilizationSecIdle 45274.958141767
scalar OsgEarthNet.uav[65] utilizationEnergyMission 106678.9816246
scalar OsgEarthNet.uav[65] utilizationEnergyMaintenance 113118.79588699
scalar OsgEarthNet.uav[65] utilizationEnergyCharge 220751.8918457
scalar OsgEarthNet.uav[65] utilizationEnergyOverdrawMission 0
[...]
scalar OsgEarthNet.uav[81] utilizationCountManeuversMission 863
scalar OsgEarthNet.uav[81] utilizationCountManeuversMaintenance 120
scalar OsgEarthNet.uav[81] utilizationCountChargeState 60
scalar OsgEarthNet.uav[81] utilizationCountOverdrawnAfterMission 0
scalar OsgEarthNet.uav[81] utilizationCountIdleState 34
scalar OsgEarthNet.uav[81] utilizationFail 0
scalar OsgEarthNet.uav[81] simulationTime 259200
scalar OsgEarthNet.uav[82] utilizationSecMission 29142.492634609
scalar OsgEarthNet.uav[82] utilizationSecMaintenance 27225.503365391
scalar OsgEarthNet.uav[82] utilizationSecCharge 194280
scalar OsgEarthNet.uav[82] utilizationSecIdle 8552.003
scalar OsgEarthNet.uav[82] utilizationEnergyMission 140288.64839935
scalar OsgEarthNet.uav[82] utilizationEnergyMaintenance 125265.19448694
scalar OsgEarthNet.uav[82] utilizationEnergyCharge 262092.58496094
scalar OsgEarthNet.uav[82] utilizationEnergyOverdrawMission 0
scalar OsgEarthNet.uav[82] utilizationEnergyOverdrawMaintenance 0
scalar OsgEarthNet.uav[82] utilizationCountMissions 61
scalar OsgEarthNet.uav[82] utilizationCountManeuversMission 840
scalar OsgEarthNet.uav[82] utilizationCountManeuversMaintenance 122
scalar OsgEarthNet.uav[82] utilizationCountChargeState 60
scalar OsgEarthNet.uav[82] utilizationCountOverdrawnAfterMission 0
scalar OsgEarthNet.uav[82] utilizationCountIdleState 23
scalar OsgEarthNet.uav[82] utilizationFail 0
scalar OsgEarthNet.uav[82] simulationTime 259200
scalar OsgEarthNet.uav[83] utilizationSecMission 26183.185138392
scalar OsgEarthNet.uav[83] utilizationSecMaintenance 29904.330014614
scalar OsgEarthNet.uav[83] utilizationSecCharge 195110.47584699
scalar OsgEarthNet.uav[83] utilizationSecIdle 8002.008
scalar OsgEarthNet.uav[83] utilizationEnergyMission 127818.64870453
scalar OsgEarthNet.uav[83] utilizationEnergyMaintenance 138963.57722855
scalar OsgEarthNet.uav[83] utilizationEnergyCharge 264325.43676758
scalar OsgEarthNet.uav[83] utilizationEnergyOverdrawMission 0
scalar OsgEarthNet.uav[83] utilizationEnergyOverdrawMaintenance 0
scalar OsgEarthNet.uav[83] utilizationCountMissions 62
scalar OsgEarthNet.uav[83] utilizationCountManeuversMission 859
scalar OsgEarthNet.uav[83] utilizationCountManeuversMaintenance 124
scalar OsgEarthNet.uav[83] utilizationCountChargeState 62
scalar OsgEarthNet.uav[83] utilizationCountOverdrawnAfterMission 0
scalar OsgEarthNet.uav[83] utilizationCountIdleState 21
scalar OsgEarthNet.uav[83] utilizationFail 0
scalar OsgEarthNet.uav[83] simulationTime 259200
scalar OsgEarthNet.uav[84] utilizationSecMission 25467.801646131
scalar OsgEarthNet.uav[84] utilizationSecMaintenance 29987.001189082
scalar OsgEarthNet.uav[84] utilizationSecCharge 192733.18616479
scalar OsgEarthNet.uav[84] utilizationSecIdle 11012.01
scalar OsgEarthNet.uav[84] utilizationEnergyMission 121513.75478363
scalar OsgEarthNet.uav[84] utilizationEnergyMaintenance 139749.56269836
scalar OsgEarthNet.uav[84] utilizationEnergyCharge 258236.13226318
scalar OsgEarthNet.uav[84] utilizationEnergyOverdrawMission 0
scalar OsgEarthNet.uav[84] utilizationEnergyOverdrawMaintenance 94.000053405762
scalar OsgEarthNet.uav[84] utilizationCountMissions 60
scalar OsgEarthNet.uav[84] utilizationCountManeuversMission 841
scalar OsgEarthNet.uav[84] utilizationCountManeuversMaintenance 120
scalar OsgEarthNet.uav[84] utilizationCountChargeState 60
scalar OsgEarthNet.uav[84] utilizationCountOverdrawnAfterMission 1
scalar OsgEarthNet.uav[84] utilizationCountIdleState 27
scalar OsgEarthNet.uav[84] utilizationFail 0
scalar OsgEarthNet.uav[84] simulationTime 259200
scalar OsgEarthNet.uav[85] utilizationSecMission 27712.738211935
scalar OsgEarthNet.uav[85] utilizationSecMaintenance 29022.933039037
scalar OsgEarthNet.uav[85] utilizationSecCharge 195112.87479031
scalar OsgEarthNet.uav[85] utilizationSecIdle 7351.4529587171
scalar OsgEarthNet.uav[85] utilizationEnergyMission 133035.08973312
scalar OsgEarthNet.uav[85] utilizationEnergyMaintenance 134935.65703964
scalar OsgEarthNet.uav[85] utilizationEnergyCharge 264321.34020996
scalar OsgEarthNet.uav[85] utilizationEnergyOverdrawMission 0
scalar OsgEarthNet.uav[85] utilizationEnergyOverdrawMaintenance 0
scalar OsgEarthNet.uav[85] utilizationCountMissions 61
scalar OsgEarthNet.uav[85] utilizationCountManeuversMission 743
scalar OsgEarthNet.uav[85] utilizationCountManeuversMaintenance 122
scalar OsgEarthNet.uav[85] utilizationCountChargeState 61
scalar OsgEarthNet.uav[85] utilizationCountOverdrawnAfterMission 0
scalar OsgEarthNet.uav[85] utilizationCountIdleState 24
scalar OsgEarthNet.uav[85] utilizationFail 0
scalar OsgEarthNet.uav[85] simulationTime 259200
scalar OsgEarthNet.uav[86] utilizationSecMission 28444.37198358
scalar OsgEarthNet.uav[86] utilizationSecMaintenance 27541.730156391
scalar OsgEarthNet.uav[86] utilizationSecCharge 195111.89286003
scalar OsgEarthNet.uav[86] utilizationSecIdle 8102.004
scalar OsgEarthNet.uav[86] utilizationEnergyMission 137889.01482773
scalar OsgEarthNet.uav[86] utilizationEnergyMaintenance 127036.60917664
scalar OsgEarthNet.uav[86] utilizationEnergyCharge 263462.43334961
scalar OsgEarthNet.uav[86] utilizationEnergyOverdrawMission 0
scalar OsgEarthNet.uav[86] utilizationEnergyOverdrawMaintenance 0
scalar OsgEarthNet.uav[86] utilizationCountMissions 61
scalar OsgEarthNet.uav[86] utilizationCountManeuversMission 912
scalar OsgEarthNet.uav[86] utilizationCountManeuversMaintenance 122
scalar OsgEarthNet.uav[86] utilizationCountChargeState 61
scalar OsgEarthNet.uav[86] utilizationCountOverdrawnAfterMission 0
scalar OsgEarthNet.uav[86] utilizationCountIdleState 24
scalar OsgEarthNet.uav[86] utilizationFail 0
scalar OsgEarthNet.uav[86] simulationTime 259200
scalar OsgEarthNet.uav[87] utilizationSecMission 28546.614119774
scalar OsgEarthNet.uav[87] utilizationSecMaintenance 28416.704072338
scalar OsgEarthNet.uav[87] utilizationSecCharge 196650
scalar OsgEarthNet.uav[87] utilizationSecIdle 5586.680807888
scalar OsgEarthNet.uav[87] utilizationEnergyMission 138678.08201599
scalar OsgEarthNet.uav[87] utilizationEnergyMaintenance 131636.47373554
scalar OsgEarthNet.uav[87] utilizationEnergyCharge 264423.47460938
scalar OsgEarthNet.uav[87] utilizationEnergyOverdrawMission 0
scalar OsgEarthNet.uav[87] utilizationEnergyOverdrawMaintenance 0
scalar OsgEarthNet.uav[87] utilizationCountMissions 62
scalar OsgEarthNet.uav[87] utilizationCountManeuversMission 863
scalar OsgEarthNet.uav[87] utilizationCountManeuversMaintenance 124
scalar OsgEarthNet.uav[87] utilizationCountChargeState 61
scalar OsgEarthNet.uav[87] utilizationCountOverdrawnAfterMission 0
scalar OsgEarthNet.uav[87] utilizationCountIdleState 23
scalar OsgEarthNet.uav[87] utilizationFail 0
scalar OsgEarthNet.uav[87] simulationTime 259200
scalar OsgEarthNet.uav[88] utilizationSecMission 25260.120815894
scalar OsgEarthNet.uav[88] utilizationSecMaintenance 31348.862533734
scalar OsgEarthNet.uav[88] utilizationSecCharge 197541.79603646
scalar OsgEarthNet.uav[88] utilizationSecIdle 5049.2196139157
scalar OsgEarthNet.uav[88] utilizationEnergyMission 123521.10527039
scalar OsgEarthNet.uav[88] utilizationEnergyMaintenance 144050.97891617
scalar OsgEarthNet.uav[88] utilizationEnergyCharge 266349.51464844
scalar OsgEarthNet.uav[88] utilizationEnergyOverdrawMission 0
scalar OsgEarthNet.uav[88] utilizationEnergyOverdrawMaintenance 0
scalar OsgEarthNet.uav[88] utilizationCountMissions 62
scalar OsgEarthNet.uav[88] utilizationCountManeuversMission 833
scalar OsgEarthNet.uav[88] utilizationCountManeuversMaintenance 124
scalar OsgEarthNet.uav[88] utilizationCountChargeState 62
scalar OsgEarthNet.uav[88] utilizationCountOverdrawnAfterMission 0
scalar OsgEarthNet.uav[88] utilizationCountIdleState 23
scalar OsgEarthNet.uav[88] utilizationFail 0
scalar OsgEarthNet.uav[88] simulationTime 259200
scalar OsgEarthNet.uav[89] utilizationSecMission 26720.278830258
scalar OsgEarthNet.uav[89] utilizationSecMaintenance 29058.81402343
scalar OsgEarthNet.uav[89] utilizationSecCharge 195338.89514631
scalar OsgEarthNet.uav[89] utilizationSecIdle 8082.011
scalar OsgEarthNet.uav[89] utilizationEnergyMission 129533.16904068
scalar OsgEarthNet.uav[89] utilizationEnergyMaintenance 135597.26792526
scalar OsgEarthNet.uav[89] utilizationEnergyCharge 264117.60449219
scalar OsgEarthNet.uav[89] utilizationEnergyOverdrawMission 0
scalar OsgEarthNet.uav[89] utilizationEnergyOverdrawMaintenance 75.637962341309
scalar OsgEarthNet.uav[89] utilizationCountMissions 61
scalar OsgEarthNet.uav[89] utilizationCountManeuversMission 855
scalar OsgEarthNet.uav[89] utilizationCountManeuversMaintenance 122
scalar OsgEarthNet.uav[89] utilizationCountChargeState 61
scalar OsgEarthNet.uav[89] utilizationCountOverdrawnAfterMission 1
scalar OsgEarthNet.uav[89] utilizationCountIdleState 20
scalar OsgEarthNet.uav[89] utilizationFail 0
scalar OsgEarthNet.uav[89] simulationTime 259200
scalar OsgEarthNet.uav[90] utilizationSecMission 26795.22734729
scalar OsgEarthNet.uav[90] utilizationSecMaintenance 28690.494471161
scalar OsgEarthNet.uav[90] utilizationSecCharge 193391.30851476
scalar OsgEarthNet.uav[90] utilizationSecIdle 10322.968666792
scalar OsgEarthNet.uav[90] utilizationEnergyMission 129995.40900421
scalar OsgEarthNet.uav[90] utilizationEnergyMaintenance 134838.10791397
scalar OsgEarthNet.uav[90] utilizationEnergyCharge 261180.78442383
scalar OsgEarthNet.uav[90] utilizationEnergyOverdrawMission 0
scalar OsgEarthNet.uav[90] utilizationEnergyOverdrawMaintenance 143.73324584961
scalar OsgEarthNet.uav[90] utilizationCountMissions 61
scalar OsgEarthNet.uav[90] utilizationCountManeuversMission 833
scalar OsgEarthNet.uav[90] utilizationCountManeuversMaintenance 122
scalar OsgEarthNet.uav[90] utilizationCountChargeState 61
scalar OsgEarthNet.uav[90] utilizationCountOverdrawnAfterMission 1
scalar OsgEarthNet.uav[90] utilizationCountIdleState 23
scalar OsgEarthNet.uav[90] utilizationFail 0
scalar OsgEarthNet.uav[90] simulationTime 259200
scalar OsgEarthNet.uav[91] utilizationSecMission 27074.237721739
scalar OsgEarthNet.uav[91] utilizationSecMaintenance 29580.251769161
scalar OsgEarthNet.uav[91] utilizationSecCharge 195630.89761958
scalar OsgEarthNet.uav[91] utilizationSecIdle 6914.6118895164
scalar OsgEarthNet.uav[91] utilizationEnergyMission 132772.30574417
scalar OsgEarthNet.uav[91] utilizationEnergyMaintenance 137604.18165588
scalar OsgEarthNet.uav[91] utilizationEnergyCharge 265445.95123291
scalar OsgEarthNet.uav[91] utilizationEnergyOverdrawMission 0
scalar OsgEarthNet.uav[91] utilizationEnergyOverdrawMaintenance 0
scalar OsgEarthNet.uav[91] utilizationCountMissions 61
scalar OsgEarthNet.uav[91] utilizationCountManeuversMission 861
scalar OsgEarthNet.uav[91] utilizationCountManeuversMaintenance 122
scalar OsgEarthNet.uav[91] utilizationCountChargeState 61
scalar OsgEarthNet.uav[91] utilizationCountOverdrawnAfterMission 0
scalar OsgEarthNet.uav[91] utilizationCountIdleState 22
scalar OsgEarthNet.uav[91] utilizationFail 0
scalar OsgEarthNet.uav[91] simulationTime 259200
scalar OsgEarthNet.uav[92] utilizationSecMission 29428.628145285
scalar OsgEarthNet.uav[92] utilizationSecMaintenance 27066.73678728
scalar OsgEarthNet.uav[92] utilizationSecCharge 194662.10086711
scalar OsgEarthNet.uav[92] utilizationSecIdle 8042.5332003222
scalar OsgEarthNet.uav[92] utilizationEnergyMission 141651.97325897
scalar OsgEarthNet.uav[92] utilizationEnergyMaintenance 123726.06227112
scalar OsgEarthNet.uav[92] utilizationEnergyCharge 264352.11816406
scalar OsgEarthNet.uav[92] utilizationEnergyOverdrawMission 0
scalar OsgEarthNet.uav[92] utilizationEnergyOverdrawMaintenance 0
scalar OsgEarthNet.uav[92] utilizationCountMissions 61
scalar OsgEarthNet.uav[92] utilizationCountManeuversMission 822
scalar OsgEarthNet.uav[92] utilizationCountManeuversMaintenance 122
scalar OsgEarthNet.uav[92] utilizationCountChargeState 61
scalar OsgEarthNet.uav[92] utilizationCountOverdrawnAfterMission 0
scalar OsgEarthNet.uav[92] utilizationCountIdleState 21
scalar OsgEarthNet.uav[92] utilizationFail 0
scalar OsgEarthNet.uav[92] simulationTime 259200
scalar OsgEarthNet.uav[93] utilizationSecMission 28012.972674828
scalar OsgEarthNet.uav[93] utilizationSecMaintenance 28343.16567893
scalar OsgEarthNet.uav[93] utilizationSecCharge 196081.86064624
scalar OsgEarthNet.uav[93] utilizationSecIdle 6762
scalar OsgEarthNet.uav[93] utilizationEnergyMission 133037.92977905
scalar OsgEarthNet.uav[93] utilizationEnergyMaintenance 133235.88692474
scalar OsgEarthNet.uav[93] utilizationEnergyCharge 266119.74975586
scalar OsgEarthNet.uav[93] utilizationEnergyOverdrawMission 0
scalar OsgEarthNet.uav[93] utilizationEnergyOverdrawMaintenance 0
scalar OsgEarthNet.uav[93] utilizationCountMissions 61
scalar OsgEarthNet.uav[93] utilizationCountManeuversMission 811
scalar OsgEarthNet.uav[93] utilizationCountManeuversMaintenance 122
scalar OsgEarthNet.uav[93] utilizationCountChargeState 61
scalar OsgEarthNet.uav[93] utilizationCountOverdrawnAfterMission 0
scalar OsgEarthNet.uav[93] utilizationCountIdleState 22
scalar OsgEarthNet.uav[93] utilizationFail 0
scalar OsgEarthNet.uav[93] simulationTime 259200
scalar OsgEarthNet.uav[94] utilizationSecMission 27570.49093072
scalar OsgEarthNet.uav[94] utilizationSecMaintenance 28754.78545573
scalar OsgEarthNet.uav[94] utilizationSecCharge 197540
scalar OsgEarthNet.uav[94] utilizationSecIdle 5334.7226135499
scalar OsgEarthNet.uav[94] utilizationEnergyMission 134144.68317032
scalar OsgEarthNet.uav[94] utilizationEnergyMaintenance 132361.88126755
scalar OsgEarthNet.uav[94] utilizationEnergyCharge 266278.49389648
scalar OsgEarthNet.uav[94] utilizationEnergyOverdrawMission 0
scalar OsgEarthNet.uav[94] utilizationEnergyOverdrawMaintenance 169.35299682617
scalar OsgEarthNet.uav[94] utilizationCountMissions 61
scalar OsgEarthNet.uav[94] utilizationCountManeuversMission 903
scalar OsgEarthNet.uav[94] utilizationCountManeuversMaintenance 122
scalar OsgEarthNet.uav[94] utilizationCountChargeState 61
scalar OsgEarthNet.uav[94] utilizationCountOverdrawnAfterMission 1
scalar OsgEarthNet.uav[94] utilizationCountIdleState 24
scalar OsgEarthNet.uav[94] utilizationFail 0
scalar OsgEarthNet.uav[94] simulationTime 259200
scalar OsgEarthNet.uav[95] utilizationSecMission 29728.863912061
scalar OsgEarthNet.uav[95] utilizationSecMaintenance 26439.129472579
scalar OsgEarthNet.uav[95] utilizationSecCharge 196240.00561536
scalar OsgEarthNet.uav[95] utilizationSecIdle 6792
scalar OsgEarthNet.uav[95] utilizationEnergyMission 144617.48869687
scalar OsgEarthNet.uav[95] utilizationEnergyMaintenance 123303.29178238
scalar OsgEarthNet.uav[95] utilizationEnergyCharge 267049.45532227
scalar OsgEarthNet.uav[95] utilizationEnergyOverdrawMission 0
scalar OsgEarthNet.uav[95] utilizationEnergyOverdrawMaintenance 0
scalar OsgEarthNet.uav[95] utilizationCountMissions 61
scalar OsgEarthNet.uav[95] utilizationCountManeuversMission 907
scalar OsgEarthNet.uav[95] utilizationCountManeuversMaintenance 121
scalar OsgEarthNet.uav[95] utilizationCountChargeState 61
scalar OsgEarthNet.uav[95] utilizationCountOverdrawnAfterMission 0
scalar OsgEarthNet.uav[95] utilizationCountIdleState 23
scalar OsgEarthNet.uav[95] utilizationFail 0
scalar OsgEarthNet.uav[95] simulationTime 259200
scalar OsgEarthNet.uav[96] utilizationSecMission 27334.519008087
scalar OsgEarthNet.uav[96] utilizationSecMaintenance 28791.626242527
scalar OsgEarthNet.uav[96] utilizationSecCharge 194140
scalar OsgEarthNet.uav[96] utilizationSecIdle 8933.8537493857
scalar OsgEarthNet.uav[96] utilizationEnergyMission 132352.81071472
scalar OsgEarthNet.uav[96] utilizationEnergyMaintenance 131940.12779783
scalar OsgEarthNet.uav[96] utilizationEnergyCharge 263948.93188477
scalar OsgEarthNet.uav[96] utilizationEnergyOverdrawMission 0
scalar OsgEarthNet.uav[96] utilizationEnergyOverdrawMaintenance 0
scalar OsgEarthNet.uav[96] utilizationCountMissions 61
scalar OsgEarthNet.uav[96] utilizationCountManeuversMission 875
scalar OsgEarthNet.uav[96] utilizationCountManeuversMaintenance 123
scalar OsgEarthNet.uav[96] utilizationCountChargeState 61
scalar OsgEarthNet.uav[96] utilizationCountOverdrawnAfterMission 0
scalar OsgEarthNet.uav[96] utilizationCountIdleState 18
scalar OsgEarthNet.uav[96] utilizationFail 0
scalar OsgEarthNet.uav[96] simulationTime 259200
scalar OsgEarthNet.uav[97] utilizationSecMission 28388.338604956
scalar OsgEarthNet.uav[97] utilizationSecMaintenance 27379.57319376
scalar OsgEarthNet.uav[97] utilizationSecCharge 194750
scalar OsgEarthNet.uav[97] utilizationSecIdle 8682.0872012843
scalar OsgEarthNet.uav[97] utilizationEnergyMission 137826.76134367
scalar OsgEarthNet.uav[97] utilizationEnergyMaintenance 126782.19892502
scalar OsgEarthNet.uav[97] utilizationEnergyCharge 262698.75073242
scalar OsgEarthNet.uav[97] utilizationEnergyOverdrawMission 0
scalar OsgEarthNet.uav[97] utilizationEnergyOverdrawMaintenance 440.30252075195
scalar OsgEarthNet.uav[97] utilizationCountMissions 61
scalar OsgEarthNet.uav[97] utilizationCountManeuversMission 885
scalar OsgEarthNet.uav[97] utilizationCountManeuversMaintenance 123
scalar OsgEarthNet.uav[97] utilizationCountChargeState 61
scalar OsgEarthNet.uav[97] utilizationCountOverdrawnAfterMission 1
scalar OsgEarthNet.uav[97] utilizationCountIdleState 20
scalar OsgEarthNet.uav[97] utilizationFail 0
scalar OsgEarthNet.uav[97] simulationTime 259200
scalar OsgEarthNet.uav[98] utilizationSecMission 29785.996855443
scalar OsgEarthNet.uav[98] utilizationSecMaintenance 25881.997144557
scalar OsgEarthNet.uav[98] utilizationSecCharge 196720
scalar OsgEarthNet.uav[98] utilizationSecIdle 6812.005
scalar OsgEarthNet.uav[98] utilizationEnergyMission 145093.43077029
scalar OsgEarthNet.uav[98] utilizationEnergyMaintenance 122144.31499481
scalar OsgEarthNet.uav[98] utilizationEnergyCharge 264592.44799805
scalar OsgEarthNet.uav[98] utilizationEnergyOverdrawMission 0
scalar OsgEarthNet.uav[98] utilizationEnergyOverdrawMaintenance 0
scalar OsgEarthNet.uav[98] utilizationCountMissions 61
scalar OsgEarthNet.uav[98] utilizationCountManeuversMission 991
scalar OsgEarthNet.uav[98] utilizationCountManeuversMaintenance 123
scalar OsgEarthNet.uav[98] utilizationCountChargeState 61
scalar OsgEarthNet.uav[98] utilizationCountOverdrawnAfterMission 0
scalar OsgEarthNet.uav[98] utilizationCountIdleState 25
scalar OsgEarthNet.uav[98] utilizationFail 0
scalar OsgEarthNet.uav[98] simulationTime 259200
scalar OsgEarthNet.uav[99] utilizationSecMission 29049.392921723
scalar OsgEarthNet.uav[99] utilizationSecMaintenance 26395.207390166
scalar OsgEarthNet.uav[99] utilizationSecCharge 193533.38568811
scalar OsgEarthNet.uav[99] utilizationSecIdle 10222.013
scalar OsgEarthNet.uav[99] utilizationEnergyMission 143690.37607956
scalar OsgEarthNet.uav[99] utilizationEnergyMaintenance 122214.04911423
scalar OsgEarthNet.uav[99] utilizationEnergyCharge 263014.5324707
scalar OsgEarthNet.uav[99] utilizationEnergyOverdrawMission 0
scalar OsgEarthNet.uav[99] utilizationEnergyOverdrawMaintenance 0
scalar OsgEarthNet.uav[99] utilizationCountMissions 61
scalar OsgEarthNet.uav[99] utilizationCountManeuversMission 1015
scalar OsgEarthNet.uav[99] utilizationCountManeuversMaintenance 122
scalar OsgEarthNet.uav[99] utilizationCountChargeState 61
scalar OsgEarthNet.uav[99] utilizationCountOverdrawnAfterMission 0
scalar OsgEarthNet.uav[99] utilizationCountIdleState 25
scalar OsgEarthNet.uav[99] utilizationFail 0
scalar OsgEarthNet.uav[99] simulationTime 259200
scalar OsgEarthNet.cs[0] usedPower 5502505.9335477
scalar OsgEarthNet.cs[0] chargedPower 5502505.9335477
scalar OsgEarthNet.cs[0] chargedMobileNodes 973
scalar OsgEarthNet.cs[0] reservations 1289
scalar OsgEarthNet.cs[1] usedPower 5872850.8566504
scalar OsgEarthNet.cs[1] chargedPower 5872850.8566504
scalar OsgEarthNet.cs[1] chargedMobileNodes 975
scalar OsgEarthNet.cs[1] reservations 1327
scalar OsgEarthNet.cs[2] usedPower 9700376.5302394
scalar OsgEarthNet.cs[2] chargedPower 9700376.5302394
scalar OsgEarthNet.cs[2] chargedMobileNodes 1791
scalar OsgEarthNet.cs[2] reservations 2260

