version 2
run Szenario_Hotel_Gabelbach-72-20180708-00:01:53-16640
attr configname Szenario_Hotel_Gabelbach
attr datetime 20180708-00:01:53
attr experiment Szenario_Hotel_Gabelbach
attr inifile omnetpp.ini
attr iterationvars "$quant=0.975, $replM=0"
attr iterationvarsf quant=0.975,replM=0-
attr measurement "$quant=0.975, $replM=0"
attr network OsgEarthNet
attr processid 16640
attr repetition 0
attr replication #0
attr resultdir results
attr runnumber 72
attr seedset 72
itervar quant 0.975
itervar replM 0
param *.osgEarthScene.scene "\"Szenario_Hotel_Gabelbach.earth\""
param *.playgroundLatitude 50.6830269
param *.playgroundLongitude 10.8538055
param *.playgroundWidth 3500m
param *.playgroundHeight 3500m
param *.numCSs 3
param *.numUAVs 100
param *.cs[0].posX 3537m
param *.cs[0].posY 965m
param *.cs[0].posZ 538m
param *.cs[1].posX 312m
param *.cs[1].posY 1262m
param *.cs[1].posZ 539m
param *.cs[2].posX 2185m
param *.cs[2].posY 3026m
param *.cs[2].posZ 777m
param *.uav[*].predictionQuantile 0.975
param *.uav[*].replacementMethod 0
param *.*.timeStep 10s
param *.uav[*].commandPreviewCommandCount 20
param *.missionControl.missionFiles "\"missions\\\\Szenario_WB_Hotel_Gabelbach_Mission_Hotel.waypoints,missions\\\\Szenario_WB_Hotel_Gabelbach_Mission_Kickelhahn.waypoints,missions\\\\Szenario_WB_Hotel_Gabelbach_Mission_Ilmenau_Sportplatz.waypoints,missions\\\\Szenario_WB_Hotel_Gabelbach_Mission_Manebach_Mitte.waypoints,missions\\\\Szenario_WB_Hotel_Gabelbach_Mission_Manebach_Sued.waypoints,missions\\\\Szenario_WB_Hotel_Gabelbach_Hover_HoheSchlaufe.waypoints,missions\\\\Szenario_WB_Hotel_Gabelbach_Hover_Kickelhahn.waypoints,missions\\\\Szenario_WB_Hotel_Gabelbach_Hover_Gabelbachskopf.waypoints,missions\\\\Szenario_WB_Hotel_Gabelbach_Hover_Dachskopf.waypoints\""
param *.uav[0].startX 3537m
param *.uav[0].startY 965m
param *.uav[0].startZ 539m
param *.uav[1].startX 312m
param *.uav[1].startY 1262m
param *.uav[1].startZ 540m
param *.uav[2].startX 2185m
param *.uav[2].startY 3026m
param *.uav[2].startZ 778m
param *.uav[3].startX 3537m
param *.uav[3].startY 965m
param *.uav[3].startZ 539m
param *.uav[4].startX 312m
param *.uav[4].startY 1262m
param *.uav[4].startZ 540m
param *.uav[5].startX 2185m
param *.uav[5].startY 3026m
param *.uav[5].startZ 778m
param *.uav[6].startX 3537m
param *.uav[6].startY 965m
param *.uav[6].startZ 539m
param *.uav[7].startX 312m
param *.uav[7].startY 1262m
param *.uav[7].startZ 540m
param *.uav[8].startX 2185m
param *.uav[8].startY 3026m
param *.uav[8].startZ 778m
param *.uav[9].startX 3537m
param *.uav[9].startY 965m
param *.uav[9].startZ 539m
param *.uav[10].startX 3537m
param *.uav[10].startY 965m
param *.uav[10].startZ 539m
param *.uav[11].startX 312m
param *.uav[11].startY 1262m
param *.uav[11].startZ 540m
param *.uav[12].startX 2185m
param *.uav[12].startY 3026m
param *.uav[12].startZ 778m
param *.uav[13].startX 3537m
param *.uav[13].startY 965m
param *.uav[13].startZ 539m
param *.uav[14].startX 312m
param *.uav[14].startY 1262m
param *.uav[14].startZ 540m
param *.uav[15].startX 2185m
param *.uav[15].startY 3026m
param *.uav[15].startZ 778m
param *.uav[16].startX 3537m
param *.uav[16].startY 965m
param *.uav[16].startZ 539m
param *.uav[17].startX 312m
param *.uav[17].startY 1262m
param *.uav[17].startZ 540m
param *.uav[18].startX 2185m
param *.uav[18].startY 3026m
param *.uav[18].startZ 778m
param *.uav[19].startX 3537m
param *.uav[19].startY 965m
param *.uav[19].startZ 539m
param *.uav[20].startX 3537m
param *.uav[20].startY 965m
param *.uav[20].startZ 539m
param *.uav[21].startX 312m
param *.uav[21].startY 1262m
param *.uav[21].startZ 540m
param *.uav[22].startX 2185m
param *.uav[22].startY 3026m
param *.uav[22].startZ 778m
param *.uav[23].startX 3537m
param *.uav[23].startY 965m
param *.uav[23].startZ 539m
param *.uav[24].startX 312m
param *.uav[24].startY 1262m
param *.uav[24].startZ 540m
param *.uav[25].startX 2185m
param *.uav[25].startY 3026m
param *.uav[25].startZ 778m
param *.uav[26].startX 3537m
param *.uav[26].startY 965m
param *.uav[26].startZ 539m
param *.uav[27].startX 312m
param *.uav[27].startY 1262m
param *.uav[27].startZ 540m
param *.uav[28].startX 2185m
param *.uav[28].startY 3026m
param *.uav[28].startZ 778m
param *.uav[29].startX 3537m
param *.uav[29].startY 965m
param *.uav[29].startZ 539m
param *.uav[30].startX 3537m
param *.uav[30].startY 965m
param *.uav[30].startZ 539m
param *.uav[31].startX 312m
param *.uav[31].startY 1262m
param *.uav[31].startZ 540m
param *.uav[32].startX 2185m
param *.uav[32].startY 3026m
param *.uav[32].startZ 778m
param *.uav[33].startX 3537m
param *.uav[33].startY 965m
param *.uav[33].startZ 539m
param *.uav[34].startX 312m
param *.uav[34].startY 1262m
param *.uav[34].startZ 540m
param *.uav[35].startX 2185m
param *.uav[35].startY 3026m
param *.uav[35].startZ 778m
param *.uav[36].startX 3537m
param *.uav[36].startY 965m
param *.uav[36].startZ 539m
param *.uav[37].startX 312m
param *.uav[37].startY 1262m
param *.uav[37].startZ 540m
param *.uav[38].startX 2185m
param *.uav[38].startY 3026m
param *.uav[38].startZ 778m
param *.uav[39].startX 3537m
param *.uav[39].startY 965m
param *.uav[39].startZ 539m
param *.uav[40].startX 3537m
param *.uav[40].startY 965m
param *.uav[40].startZ 539m
param *.uav[41].startX 312m
param *.uav[41].startY 1262m
param *.uav[41].startZ 540m
param *.uav[42].startX 2185m
param *.uav[42].startY 3026m
param *.uav[42].startZ 778m
param *.uav[43].startX 3537m
param *.uav[43].startY 965m
param *.uav[43].startZ 539m
param *.uav[44].startX 312m
param *.uav[44].startY 1262m
param *.uav[44].startZ 540m
param *.uav[45].startX 2185m
param *.uav[45].startY 3026m
param *.uav[45].startZ 778m
param *.uav[46].startX 3537m
param *.uav[46].startY 965m
param *.uav[46].startZ 539m
param *.uav[47].startX 312m
param *.uav[47].startY 1262m
param *.uav[47].startZ 540m
param *.uav[48].startX 2185m
param *.uav[48].startY 3026m
param *.uav[48].startZ 778m
param *.uav[49].startX 3537m
param *.uav[49].startY 965m
param *.uav[49].startZ 539m
param *.uav[50].startX 3537m
param *.uav[50].startY 965m
param *.uav[50].startZ 539m
param *.uav[51].startX 312m
param *.uav[51].startY 1262m
param *.uav[51].startZ 540m
param *.uav[52].startX 2185m
param *.uav[52].startY 3026m
param *.uav[52].startZ 778m
param *.uav[53].startX 3537m
param *.uav[53].startY 965m
param *.uav[53].startZ 539m
param *.uav[54].startX 312m
param *.uav[54].startY 1262m
param *.uav[54].startZ 540m
param *.uav[55].startX 2185m
param *.uav[55].startY 3026m
param *.uav[55].startZ 778m
param *.uav[56].startX 3537m
param *.uav[56].startY 965m
param *.uav[56].startZ 539m
param *.uav[57].startX 312m
param *.uav[57].startY 1262m
param *.uav[57].startZ 540m
param *.uav[58].startX 2185m
param *.uav[58].startY 3026m
param *.uav[58].startZ 778m
param *.uav[59].startX 3537m
param *.uav[59].startY 965m
param *.uav[59].startZ 539m
param *.uav[60].startX 3537m
param *.uav[60].startY 965m
param *.uav[60].startZ 539m
param *.uav[61].startX 312m
param *.uav[61].startY 1262m
param *.uav[61].startZ 540m
param *.uav[62].startX 2185m
param *.uav[62].startY 3026m
param *.uav[62].startZ 778m
param *.uav[63].startX 3537m
param *.uav[63].startY 965m
param *.uav[63].startZ 539m
param *.uav[64].startX 312m
param *.uav[64].startY 1262m
param *.uav[64].startZ 540m
param *.uav[65].startX 2185m
param *.uav[65].startY 3026m
param *.uav[65].startZ 778m
param *.uav[66].startX 3537m
param *.uav[66].startY 965m
param *.uav[66].startZ 539m
param *.uav[67].startX 312m
param *.uav[67].startY 1262m
param *.uav[67].startZ 540m
param *.uav[68].startX 2185m
param *.uav[68].startY 3026m
param *.uav[68].startZ 778m
param *.uav[69].startX 3537m
param *.uav[69].startY 965m
param *.uav[69].startZ 539m
param *.uav[70].startX 3537m
param *.uav[70].startY 965m
param *.uav[70].startZ 539m
param *.uav[71].startX 312m
param *.uav[71].startY 1262m
param *.uav[71].startZ 540m
param *.uav[72].startX 2185m
param *.uav[72].startY 3026m
param *.uav[72].startZ 778m
param *.uav[73].startX 3537m
param *.uav[73].startY 965m
param *.uav[73].startZ 539m
param *.uav[74].startX 312m
param *.uav[74].startY 1262m
param *.uav[74].startZ 540m
param *.uav[75].startX 2185m
param *.uav[75].startY 3026m
param *.uav[75].startZ 778m
param *.uav[76].startX 3537m
param *.uav[76].startY 965m
param *.uav[76].startZ 539m
param *.uav[77].startX 312m
param *.uav[77].startY 1262m
param *.uav[77].startZ 540m
param *.uav[78].startX 2185m
param *.uav[78].startY 3026m
param *.uav[78].startZ 778m
param *.uav[79].startX 3537m
param *.uav[79].startY 965m
param *.uav[79].startZ 539m
param *.uav[80].startX 3537m
param *.uav[80].startY 965m
param *.uav[80].startZ 539m
param *.uav[81].startX 312m
param *.uav[81].startY 1262m
param *.uav[81].startZ 540m
param *.uav[82].startX 2185m
param *.uav[82].startY 3026m
param *.uav[82].startZ 778m
param *.uav[83].startX 3537m
param *.uav[83].startY 965m
param *.uav[83].startZ 539m
param *.uav[84].startX 312m
param *.uav[84].startY 1262m
param *.uav[84].startZ 540m
param *.uav[85].startX 2185m
param *.uav[85].startY 3026m
param *.uav[85].startZ 778m
param *.uav[86].startX 3537m
param *.uav[86].startY 965m
param *.uav[86].startZ 539m
param *.uav[87].startX 312m
param *.uav[87].startY 1262m
param *.uav[87].startZ 540m
param *.uav[88].startX 2185m
param *.uav[88].startY 3026m
param *.uav[88].startZ 778m
param *.uav[89].startX 3537m
param *.uav[89].startY 965m
param *.uav[89].startZ 539m
param *.uav[90].startX 3537m
param *.uav[90].startY 965m
param *.uav[90].startZ 539m
param *.uav[91].startX 312m
param *.uav[91].startY 1262m
param *.uav[91].startZ 540m
param *.uav[92].startX 2185m
param *.uav[92].startY 3026m
param *.uav[92].startZ 778m
param *.uav[93].startX 3537m
param *.uav[93].startY 965m
param *.uav[93].startZ 539m
param *.uav[94].startX 312m
param *.uav[94].startY 1262m
param *.uav[94].startZ 540m
param *.uav[95].startX 2185m
param *.uav[95].startY 3026m
param *.uav[95].startZ 778m
param *.uav[96].startX 3537m
param *.uav[96].startY 965m
param *.uav[96].startZ 539m
param *.uav[97].startX 312m
param *.uav[97].startY 1262m
param *.uav[97].startZ 540m
param *.uav[98].startX 2185m
param *.uav[98].startY 3026m
param *.uav[98].startZ 778m
param *.uav[99].startX 3537m
param *.uav[99].startY 965m
param *.uav[99].startZ 539m
param *.osgEarthScene.scene "\"boston.earth\""
param *.playgroundLatitude 42.3558
param *.playgroundLongitude -71.0677
param *.playgroundWidth 400m
param *.playgroundHeight 200m
param *.channelController.connectionColor "\"#0000FF40\""
param *.channelController.showConnections false
param *.uav[*].modelURL "\"quadrocopter.small.obj.15.scale.0,0,90.rot\""
param *.uav[*].labelColor "\"#FF7C00CC\""
param *.uav[*].label2Color "\"#FF7C00EE\""
param *.uav[*].batteryCapacity 5200mAh
param *.uav[*].batteryRemaining uav[index].batteryCapacity
param *.uav[*].predictionQuantile 0.95
param *.uav[*].replacementMethod 2
param *.uav[*].weightedSumWeight 0.5
param *.cs[*].modelURL "\"chargingstation_v1.osgt.1.scale.0,0,0.rot.0,0,-15e-1.trans\""
param *.cs[*].spotsWaiting 999
param *.cs[*].spotsCharging 999
param *.cs[*].chargeEffectivenessPercentage 100
param *.cs[*].nonLinearPhaseStartPercentage 85
param *.cs[*].chargeCurrent 6.0A
param *.cs[*].prioritizeFastCharge true
param *.missionControl.replacementSearchMethod 0
param *.*.timeStep 9s

scalar OsgEarthNet.uav[0] utilizationSecMission 6796.2948817322
scalar OsgEarthNet.uav[0] utilizationSecMaintenance 3314.7004040949
scalar OsgEarthNet.uav[0] utilizationSecCharge 36640
scalar OsgEarthNet.uav[0] utilizationSecIdle 212449.00371417
scalar OsgEarthNet.uav[0] utilizationEnergyMission 33247.83266449
scalar OsgEarthNet.uav[0] utilizationEnergyMaintenance 15870.736621857
scalar OsgEarthNet.uav[0] utilizationEnergyCharge 48017.280517578
scalar OsgEarthNet.uav[0] utilizationEnergyOverdrawMission 0
scalar OsgEarthNet.uav[0] utilizationEnergyOverdrawMaintenance 0
scalar OsgEarthNet.uav[0] utilizationCountMissions 11
scalar OsgEarthNet.uav[0] utilizationCountManeuversMission 192
scalar OsgEarthNet.uav[0] utilizationCountManeuversMaintenance 22
scalar OsgEarthNet.uav[0] utilizationCountChargeState 11
scalar OsgEarthNet.uav[0] utilizationCountOverdrawnAfterMission 0
scalar OsgEarthNet.uav[0] utilizationCountIdleState 12
scalar OsgEarthNet.uav[0] utilizationFail 0
scalar OsgEarthNet.uav[0] simulationTime 259200
scalar OsgEarthNet.uav[1] utilizationSecMission 3719.3345612745
scalar OsgEarthNet.uav[1] utilizationSecMaintenance 2584.6910508366
scalar OsgEarthNet.uav[1] utilizationSecCharge 22890
scalar OsgEarthNet.uav[1] utilizationSecIdle 230005.97338789
scalar OsgEarthNet.uav[1] utilizationEnergyMission 17956.212387085
scalar OsgEarthNet.uav[1] utilizationEnergyMaintenance 11483.130252838
scalar OsgEarthNet.uav[1] utilizationEnergyCharge 29607.987304688
scalar OsgEarthNet.uav[1] utilizationEnergyOverdrawMission 0
scalar OsgEarthNet.uav[1] utilizationEnergyOverdrawMaintenance 0
scalar OsgEarthNet.uav[1] utilizationCountMissions 7
scalar OsgEarthNet.uav[1] utilizationCountManeuversMission 110
scalar OsgEarthNet.uav[1] utilizationCountManeuversMaintenance 14
scalar OsgEarthNet.uav[1] utilizationCountChargeState 7
scalar OsgEarthNet.uav[1] utilizationCountOverdrawnAfterMission 0
scalar OsgEarthNet.uav[1] utilizationCountIdleState 8
scalar OsgEarthNet.uav[1] utilizationFail 0
scalar OsgEarthNet.uav[1] simulationTime 259200
scalar OsgEarthNet.uav[2] utilizationSecMission 22899.258735264
scalar OsgEarthNet.uav[2] utilizationSecMaintenance 21360.590811632
scalar OsgEarthNet.uav[2] utilizationSecCharge 159124.6937997
scalar OsgEarthNet.uav[2] utilizationSecIdle 55815.455653403
scalar OsgEarthNet.uav[2] utilizationEnergyMission 109765.47550583
scalar OsgEarthNet.uav[2] utilizationEnergyMaintenance 99642.450119019
scalar OsgEarthNet.uav[2] utilizationEnergyCharge 208758.30932617
scalar OsgEarthNet.uav[2] utilizationEnergyOverdrawMission 0
scalar OsgEarthNet.uav[2] utilizationEnergyOverdrawMaintenance 0
scalar OsgEarthNet.uav[2] utilizationCountMissions 48
scalar OsgEarthNet.uav[2] utilizationCountManeuversMission 668
scalar OsgEarthNet.uav[2] utilizationCountManeuversMaintenance 96
scalar OsgEarthNet.uav[2] utilizationCountChargeState 48
scalar OsgEarthNet.uav[2] utilizationCountOverdrawnAfterMission 0
scalar OsgEarthNet.uav[2] utilizationCountIdleState 48
scalar OsgEarthNet.uav[2] utilizationFail 0
scalar OsgEarthNet.uav[2] simulationTime 259200
scalar OsgEarthNet.uav[3] utilizationSecMission 440
scalar OsgEarthNet.uav[3] utilizationSecMaintenance 363.8841636065
scalar OsgEarthNet.uav[3] utilizationSecCharge 3120
scalar OsgEarthNet.uav[3] utilizationSecIdle 255276.11483639
scalar OsgEarthNet.uav[3] utilizationEnergyMission 2272.2964439392
scalar OsgEarthNet.uav[3] utilizationEnergyMaintenance 1964.2129631043
scalar OsgEarthNet.uav[3] utilizationEnergyCharge 4029.8364257812
scalar OsgEarthNet.uav[3] utilizationEnergyOverdrawMission 0
scalar OsgEarthNet.uav[3] utilizationEnergyOverdrawMaintenance 0
scalar OsgEarthNet.uav[3] utilizationCountMissions 1
scalar OsgEarthNet.uav[3] utilizationCountManeuversMission 22
scalar OsgEarthNet.uav[3] utilizationCountManeuversMaintenance 2
scalar OsgEarthNet.uav[3] utilizationCountChargeState 1
scalar OsgEarthNet.uav[3] utilizationCountOverdrawnAfterMission 0
scalar OsgEarthNet.uav[3] utilizationCountIdleState 2
scalar OsgEarthNet.uav[3] utilizationFail 0
scalar OsgEarthNet.uav[3] simulationTime 259200
scalar OsgEarthNet.uav[4] utilizationSecMission 23134.405171806
scalar OsgEarthNet.uav[4] utilizationSecMaintenance 21667.670634558
scalar OsgEarthNet.uav[4] utilizationSecCharge 159821.44838171
scalar OsgEarthNet.uav[4] utilizationSecIdle 54576.47481193
scalar OsgEarthNet.uav[4] utilizationEnergyMission 111011.93626404
scalar OsgEarthNet.uav[4] utilizationEnergyMaintenance 100763.62672043
scalar OsgEarthNet.uav[4] utilizationEnergyCharge 210208.59240723
scalar OsgEarthNet.uav[4] utilizationEnergyOverdrawMission 0
scalar OsgEarthNet.uav[4] utilizationEnergyOverdrawMaintenance 0
scalar OsgEarthNet.uav[4] utilizationCountMissions 48
scalar OsgEarthNet.uav[4] utilizationCountManeuversMission 682
scalar OsgEarthNet.uav[4] utilizationCountManeuversMaintenance 96
scalar OsgEarthNet.uav[4] utilizationCountChargeState 48
scalar OsgEarthNet.uav[4] utilizationCountOverdrawnAfterMission 0
scalar OsgEarthNet.uav[4] utilizationCountIdleState 48
scalar OsgEarthNet.uav[4] utilizationFail 0
scalar OsgEarthNet.uav[4] simulationTime 259200
scalar OsgEarthNet.uav[5] utilizationSecMission 21705.285301797
scalar OsgEarthNet.uav[5] utilizationSecMaintenance 20618.168565812
scalar OsgEarthNet.uav[5] utilizationSecCharge 151434.54013239
scalar OsgEarthNet.uav[5] utilizationSecIdle 65442.005
scalar OsgEarthNet.uav[5] utilizationEnergyMission 105537.50644302
scalar OsgEarthNet.uav[5] utilizationEnergyMaintenance 95962.133666992
scalar OsgEarthNet.uav[5] utilizationEnergyCharge 198520.98205566
scalar OsgEarthNet.uav[5] utilizationEnergyOverdrawMission 0
scalar OsgEarthNet.uav[5] utilizationEnergyOverdrawMaintenance 304.60542297363
scalar OsgEarthNet.uav[5] utilizationCountMissions 46
scalar OsgEarthNet.uav[5] utilizationCountManeuversMission 757
scalar OsgEarthNet.uav[5] utilizationCountManeuversMaintenance 92
scalar OsgEarthNet.uav[5] utilizationCountChargeState 46
scalar OsgEarthNet.uav[5] utilizationCountOverdrawnAfterMission 2
scalar OsgEarthNet.uav[5] utilizationCountIdleState 46
scalar OsgEarthNet.uav[5] utilizationFail 0
scalar OsgEarthNet.uav[5] simulationTime 259200
scalar OsgEarthNet.uav[6] utilizationSecMission 25588.6633034
scalar OsgEarthNet.uav[6] utilizationSecMaintenance 25294.69959239
scalar OsgEarthNet.uav[6] utilizationSecCharge 183994.63510421
scalar OsgEarthNet.uav[6] utilizationSecIdle 24322.001
scalar OsgEarthNet.uav[6] utilizationEnergyMission 123849.76464081
scalar OsgEarthNet.uav[6] utilizationEnergyMaintenance 116591.42690277
scalar OsgEarthNet.uav[6] utilizationEnergyCharge 240445.11010742
scalar OsgEarthNet.uav[6] utilizationEnergyOverdrawMission 0
scalar OsgEarthNet.uav[6] utilizationEnergyOverdrawMaintenance 0
scalar OsgEarthNet.uav[6] utilizationCountMissions 56
scalar OsgEarthNet.uav[6] utilizationCountManeuversMission 836
scalar OsgEarthNet.uav[6] utilizationCountManeuversMaintenance 112
scalar OsgEarthNet.uav[6] utilizationCountChargeState 56
scalar OsgEarthNet.uav[6] utilizationCountOverdrawnAfterMission 0
scalar OsgEarthNet.uav[6] utilizationCountIdleState 56
scalar OsgEarthNet.uav[6] utilizationFail 0
scalar OsgEarthNet.uav[6] simulationTime 259200
scalar OsgEarthNet.uav[7] utilizationSecMission 21284.04807104
scalar OsgEarthNet.uav[7] utilizationSecMaintenance 19905.388767456
scalar OsgEarthNet.uav[7] utilizationSecCharge 149148.5511615
scalar OsgEarthNet.uav[7] utilizationSecIdle 68862.011
scalar OsgEarthNet.uav[7] utilizationEnergyMission 103077.13754272
scalar OsgEarthNet.uav[7] utilizationEnergyMaintenance 92480.73368454
scalar OsgEarthNet.uav[7] utilizationEnergyCharge 195349.03759766
scalar OsgEarthNet.uav[7] utilizationEnergyOverdrawMission 0
scalar OsgEarthNet.uav[7] utilizationEnergyOverdrawMaintenance 0
scalar OsgEarthNet.uav[7] utilizationCountMissions 45
scalar OsgEarthNet.uav[7] utilizationCountManeuversMission 640
scalar OsgEarthNet.uav[7] utilizationCountManeuversMaintenance 90
scalar OsgEarthNet.uav[7] utilizationCountChargeState 45
scalar OsgEarthNet.uav[7] utilizationCountOverdrawnAfterMission 0
scalar OsgEarthNet.uav[7] utilizationCountIdleState 45
scalar OsgEarthNet.uav[7] utilizationFail 0
scalar OsgEarthNet.uav[7] simulationTime 259200
scalar OsgEarthNet.uav[8] utilizationSecMission 26686.451613909
scalar OsgEarthNet.uav[8] utilizationSecMaintenance 23281.165490934
scalar OsgEarthNet.uav[8] utilizationSecCharge 179393.20678475
scalar OsgEarthNet.uav[8] utilizationSecIdle 29839.175110411
scalar OsgEarthNet.uav[8] utilizationEnergyMission 129235.49073792
scalar OsgEarthNet.uav[8] utilizationEnergyMaintenance 108364.7717247
scalar OsgEarthNet.uav[8] utilizationEnergyCharge 234303.77233887
scalar OsgEarthNet.uav[8] utilizationEnergyOverdrawMission 0
scalar OsgEarthNet.uav[8] utilizationEnergyOverdrawMaintenance 0
scalar OsgEarthNet.uav[8] utilizationCountMissions 55
scalar OsgEarthNet.uav[8] utilizationCountManeuversMission 848
scalar OsgEarthNet.uav[8] utilizationCountManeuversMaintenance 110
scalar OsgEarthNet.uav[8] utilizationCountChargeState 55
scalar OsgEarthNet.uav[8] utilizationCountOverdrawnAfterMission 0
scalar OsgEarthNet.uav[8] utilizationCountIdleState 55
scalar OsgEarthNet.uav[8] utilizationFail 0
scalar OsgEarthNet.uav[8] simulationTime 259200
scalar OsgEarthNet.uav[9] utilizationSecMission 24871.395746897
scalar OsgEarthNet.uav[9] utilizationSecMaintenance 26028.189041997
scalar OsgEarthNet.uav[9] utilizationSecCharge 183618.41121111
scalar OsgEarthNet.uav[9] utilizationSecIdle 24682.003
scalar OsgEarthNet.uav[9] utilizationEnergyMission 119560.7890892
scalar OsgEarthNet.uav[9] utilizationEnergyMaintenance 121121.24370575
scalar OsgEarthNet.uav[9] utilizationEnergyCharge 240236.13891602
scalar OsgEarthNet.uav[9] utilizationEnergyOverdrawMission 0
scalar OsgEarthNet.uav[9] utilizationEnergyOverdrawMaintenance 405.97958374023
scalar OsgEarthNet.uav[9] utilizationCountMissions 56
scalar OsgEarthNet.uav[9] utilizationCountManeuversMission 792
scalar OsgEarthNet.uav[9] utilizationCountManeuversMaintenance 112
scalar OsgEarthNet.uav[9] utilizationCountChargeState 56
scalar OsgEarthNet.uav[9] utilizationCountOverdrawnAfterMission 1
scalar OsgEarthNet.uav[9] utilizationCountIdleState 56
scalar OsgEarthNet.uav[9] utilizationFail 0
scalar OsgEarthNet.uav[9] simulationTime 259200
scalar OsgEarthNet.uav[10] utilizationSecMission 24921.369142544
scalar OsgEarthNet.uav[10] utilizationSecMaintenance 21747.117549532
scalar OsgEarthNet.uav[10] utilizationSecCharge 169739.50230792
scalar OsgEarthNet.uav[10] utilizationSecIdle 42792.01
scalar OsgEarthNet.uav[10] utilizationEnergyMission 120559.39764404
scalar OsgEarthNet.uav[10] utilizationEnergyMaintenance 100377.21632004
scalar OsgEarthNet.uav[10] utilizationEnergyCharge 222187.88623047
scalar OsgEarthNet.uav[10] utilizationEnergyOverdrawMission 0
scalar OsgEarthNet.uav[10] utilizationEnergyOverdrawMaintenance 0
scalar OsgEarthNet.uav[10] utilizationCountMissions 51
scalar OsgEarthNet.uav[10] utilizationCountManeuversMission 814
scalar OsgEarthNet.uav[10] utilizationCountManeuversMaintenance 102
scalar OsgEarthNet.uav[10] utilizationCountChargeState 51
scalar OsgEarthNet.uav[10] utilizationCountOverdrawnAfterMission 0
scalar OsgEarthNet.uav[10] utilizationCountIdleState 51
scalar OsgEarthNet.uav[10] utilizationFail 0
scalar OsgEarthNet.uav[10] simulationTime 259200
scalar OsgEarthNet.uav[11] utilizationSecMission 21567.946513592
scalar OsgEarthNet.uav[11] utilizationSecMaintenance 20048.198476839
scalar OsgEarthNet.uav[11] utilizationSecCharge 147841.76680829
scalar OsgEarthNet.uav[11] utilizationSecIdle 69742.087201284
scalar OsgEarthNet.uav[11] utilizationEnergyMission 102968.73682022
scalar OsgEarthNet.uav[11] utilizationEnergyMaintenance 93398.154777527
scalar OsgEarthNet.uav[11] utilizationEnergyCharge 194000.24829102
scalar OsgEarthNet.uav[11] utilizationEnergyOverdrawMission 0
scalar OsgEarthNet.uav[11] utilizationEnergyOverdrawMaintenance 0
scalar OsgEarthNet.uav[11] utilizationCountMissions 45
scalar OsgEarthNet.uav[11] utilizationCountManeuversMission 634
scalar OsgEarthNet.uav[11] utilizationCountManeuversMaintenance 90
scalar OsgEarthNet.uav[11] utilizationCountChargeState 45
scalar OsgEarthNet.uav[11] utilizationCountOverdrawnAfterMission 0
scalar OsgEarthNet.uav[11] utilizationCountIdleState 45
scalar OsgEarthNet.uav[11] utilizationFail 0
scalar OsgEarthNet.uav[11] simulationTime 259200
scalar OsgEarthNet.uav[12] utilizationSecMission 25812.97824682
scalar OsgEarthNet.uav[12] utilizationSecMaintenance 25229.753609928
scalar OsgEarthNet.uav[12] utilizationSecCharge 183368.04752934
scalar OsgEarthNet.uav[12] utilizationSecIdle 24789.219613916
scalar OsgEarthNet.uav[12] utilizationEnergyMission 124582.16910172
scalar OsgEarthNet.uav[12] utilizationEnergyMaintenance 118657.34103012
scalar OsgEarthNet.uav[12] utilizationEnergyCharge 241394.99389648
scalar OsgEarthNet.uav[12] utilizationEnergyOverdrawMission 0
scalar OsgEarthNet.uav[12] utilizationEnergyOverdrawMaintenance 0
scalar OsgEarthNet.uav[12] utilizationCountMissions 55
scalar OsgEarthNet.uav[12] utilizationCountManeuversMission 803
scalar OsgEarthNet.uav[12] utilizationCountManeuversMaintenance 110
scalar OsgEarthNet.uav[12] utilizationCountChargeState 55
scalar OsgEarthNet.uav[12] utilizationCountOverdrawnAfterMission 0
scalar OsgEarthNet.uav[12] utilizationCountIdleState 55
scalar OsgEarthNet.uav[12] utilizationFail 0
scalar OsgEarthNet.uav[12] simulationTime 259200
scalar OsgEarthNet.uav[13] utilizationSecMission 21679.809426585
scalar OsgEarthNet.uav[13] utilizationSecMaintenance 18580.941707876
scalar OsgEarthNet.uav[13] utilizationSecCharge 147157.23386554
scalar OsgEarthNet.uav[13] utilizationSecIdle 71782.014
scalar OsgEarthNet.uav[13] utilizationEnergyMission 106528.93626404
scalar OsgEarthNet.uav[13] utilizationEnergyMaintenance 85394.324188232
scalar OsgEarthNet.uav[13] utilizationEnergyCharge 192864.99243164
scalar OsgEarthNet.uav[13] utilizationEnergyOverdrawMission 0
scalar OsgEarthNet.uav[13] utilizationEnergyOverdrawMaintenance 0
scalar OsgEarthNet.uav[13] utilizationCountMissions 44
scalar OsgEarthNet.uav[13] utilizationCountManeuversMission 663
scalar OsgEarthNet.uav[13] utilizationCountManeuversMaintenance 88
scalar OsgEarthNet.uav[13] utilizationCountChargeState 44
scalar OsgEarthNet.uav[13] utilizationCountOverdrawnAfterMission 0
scalar OsgEarthNet.uav[13] utilizationCountIdleState 44
scalar OsgEarthNet.uav[13] utilizationFail 0
scalar OsgEarthNet.uav[13] simulationTime 259200
scalar OsgEarthNet.uav[14] utilizationSecMission 360
scalar OsgEarthNet.uav[14] utilizationSecMaintenance 507.16988087142
scalar OsgEarthNet.uav[14] utilizationSecCharge 3370
scalar OsgEarthNet.uav[14] utilizationSecIdle 254962.82911913
scalar OsgEarthNet.uav[14] utilizationEnergyMission 1879.9773483276
scalar OsgEarthNet.uav[14] utilizationEnergyMaintenance 2522.0443229675
scalar OsgEarthNet.uav[14] utilizationEnergyCharge 4490.9921875
scalar OsgEarthNet.uav[14] utilizationEnergyOverdrawMission 0
scalar OsgEarthNet.uav[14] utilizationEnergyOverdrawMaintenance 0
scalar OsgEarthNet.uav[14] utilizationCountMissions 1
scalar OsgEarthNet.uav[14] utilizationCountManeuversMission 18
scalar OsgEarthNet.uav[14] utilizationCountManeuversMaintenance 2
scalar OsgEarthNet.uav[14] utilizationCountChargeState 1
scalar OsgEarthNet.uav[14] utilizationCountOverdrawnAfterMission 0
scalar OsgEarthNet.uav[14] utilizationCountIdleState 2
scalar OsgEarthNet.uav[14] utilizationFail 0
scalar OsgEarthNet.uav[14] simulationTime 259200
scalar OsgEarthNet.uav[15] utilizationSecMission 10166.546807187
scalar OsgEarthNet.uav[15] utilizationSecMaintenance 7623.0032032604
scalar OsgEarthNet.uav[15] utilizationSecCharge 65530
scalar OsgEarthNet.uav[15] utilizationSecIdle 175880.44898955
scalar OsgEarthNet.uav[15] utilizationEnergyMission 48571.057060242
scalar OsgEarthNet.uav[15] utilizationEnergyMaintenance 35496.88035202
scalar OsgEarthNet.uav[15] utilizationEnergyCharge 84853.566894531
scalar OsgEarthNet.uav[15] utilizationEnergyOverdrawMission 0
scalar OsgEarthNet.uav[15] utilizationEnergyOverdrawMaintenance 0
scalar OsgEarthNet.uav[15] utilizationCountMissions 20
scalar OsgEarthNet.uav[15] utilizationCountManeuversMission 320
scalar OsgEarthNet.uav[15] utilizationCountManeuversMaintenance 40
scalar OsgEarthNet.uav[15] utilizationCountChargeState 20
scalar OsgEarthNet.uav[15] utilizationCountOverdrawnAfterMission 0
scalar OsgEarthNet.uav[15] utilizationCountIdleState 21
scalar OsgEarthNet.uav[15] utilizationFail 0
scalar OsgEarthNet.uav[15] simulationTime 259200
scalar OsgEarthNet.uav[16] utilizationSecMission 22884.309243732
scalar OsgEarthNet.uav[16] utilizationSecMaintenance 20353.677756268
scalar OsgEarthNet.uav[16] utilizationSecCharge 153070
scalar OsgEarthNet.uav[16] utilizationSecIdle 62892.012
scalar OsgEarthNet.uav[16] utilizationEnergyMission 111653.38042068
scalar OsgEarthNet.uav[16] utilizationEnergyMaintenance 93830.271491406
scalar OsgEarthNet.uav[16] utilizationEnergyCharge 200225.80053711
scalar OsgEarthNet.uav[16] utilizationEnergyOverdrawMission 0
scalar OsgEarthNet.uav[16] utilizationEnergyOverdrawMaintenance 0
scalar OsgEarthNet.uav[16] utilizationCountMissions 47
scalar OsgEarthNet.uav[16] utilizationCountManeuversMission 712
scalar OsgEarthNet.uav[16] utilizationCountManeuversMaintenance 94
scalar OsgEarthNet.uav[16] utilizationCountChargeState 46
scalar OsgEarthNet.uav[16] utilizationCountOverdrawnAfterMission 0
scalar OsgEarthNet.uav[16] utilizationCountIdleState 47
scalar OsgEarthNet.uav[16] utilizationFail 0
scalar OsgEarthNet.uav[16] simulationTime 259200
scalar OsgEarthNet.uav[17] utilizationSecMission 25676.477967431
scalar OsgEarthNet.uav[17] utilizationSecMaintenance 24098.000081982
scalar OsgEarthNet.uav[17] utilizationSecCharge 178833.51495059
scalar OsgEarthNet.uav[17] utilizationSecIdle 30592.006
scalar OsgEarthNet.uav[17] utilizationEnergyMission 123508.86584854
scalar OsgEarthNet.uav[17] utilizationEnergyMaintenance 112059.04618454
scalar OsgEarthNet.uav[17] utilizationEnergyCharge 234878.68920898
scalar OsgEarthNet.uav[17] utilizationEnergyOverdrawMission 0
scalar OsgEarthNet.uav[17] utilizationEnergyOverdrawMaintenance 0
scalar OsgEarthNet.uav[17] utilizationCountMissions 54
scalar OsgEarthNet.uav[17] utilizationCountManeuversMission 783
scalar OsgEarthNet.uav[17] utilizationCountManeuversMaintenance 108
scalar OsgEarthNet.uav[17] utilizationCountChargeState 54
scalar OsgEarthNet.uav[17] utilizationCountOverdrawnAfterMission 0
scalar OsgEarthNet.uav[17] utilizationCountIdleState 54
scalar OsgEarthNet.uav[17] utilizationFail 0
scalar OsgEarthNet.uav[17] simulationTime 259200
scalar OsgEarthNet.uav[18] utilizationSecMission 25400.147420359
scalar OsgEarthNet.uav[18] utilizationSecMaintenance 26042.336557168
scalar OsgEarthNet.uav[18] utilizationSecCharge 187135.51402247
scalar OsgEarthNet.uav[18] utilizationSecIdle 20622.001
scalar OsgEarthNet.uav[18] utilizationEnergyMission 123163.36732864
scalar OsgEarthNet.uav[18] utilizationEnergyMaintenance 119724.25593567
scalar OsgEarthNet.uav[18] utilizationEnergyCharge 244690.11401367
scalar OsgEarthNet.uav[18] utilizationEnergyOverdrawMission 0
scalar OsgEarthNet.uav[18] utilizationEnergyOverdrawMaintenance 87.573738098145
scalar OsgEarthNet.uav[18] utilizationCountMissions 57
scalar OsgEarthNet.uav[18] utilizationCountManeuversMission 904
scalar OsgEarthNet.uav[18] utilizationCountManeuversMaintenance 114
scalar OsgEarthNet.uav[18] utilizationCountChargeState 57
scalar OsgEarthNet.uav[18] utilizationCountOverdrawnAfterMission 1
scalar OsgEarthNet.uav[18] utilizationCountIdleState 57
scalar OsgEarthNet.uav[18] utilizationFail 0
scalar OsgEarthNet.uav[18] simulationTime 259200
scalar OsgEarthNet.uav[19] utilizationSecMission 25869.99677882
scalar OsgEarthNet.uav[19] utilizationSecMaintenance 20463.130239144
scalar OsgEarthNet.uav[19] utilizationSecCharge 162234.86098204
scalar OsgEarthNet.uav[19] utilizationSecIdle 50632.011
scalar OsgEarthNet.uav[19] utilizationEnergyMission 122630.45391464
scalar OsgEarthNet.uav[19] utilizationEnergyMaintenance 94310.866630554
scalar OsgEarthNet.uav[19] utilizationEnergyCharge 211939.45904541
scalar OsgEarthNet.uav[19] utilizationEnergyOverdrawMission 0
scalar OsgEarthNet.uav[19] utilizationEnergyOverdrawMaintenance 0
scalar OsgEarthNet.uav[19] utilizationCountMissions 50
scalar OsgEarthNet.uav[19] utilizationCountManeuversMission 744
scalar OsgEarthNet.uav[19] utilizationCountManeuversMaintenance 100
scalar OsgEarthNet.uav[19] utilizationCountChargeState 50
scalar OsgEarthNet.uav[19] utilizationCountOverdrawnAfterMission 0
scalar OsgEarthNet.uav[19] utilizationCountIdleState 50
scalar OsgEarthNet.uav[19] utilizationFail 0
scalar OsgEarthNet.uav[19] simulationTime 259200
scalar OsgEarthNet.uav[20] utilizationSecMission 443.5870541303
scalar OsgEarthNet.uav[20] utilizationSecMaintenance 501.79191714298
scalar OsgEarthNet.uav[20] utilizationSecCharge 3210
scalar OsgEarthNet.uav[20] utilizationSecIdle 255044.62002873
scalar OsgEarthNet.uav[20] utilizationEnergyMission 1957.1475524902
scalar OsgEarthNet.uav[20] utilizationEnergyMaintenance 2331.3883171082
scalar OsgEarthNet.uav[20] utilizationEnergyCharge 4271.2973632812
scalar OsgEarthNet.uav[20] utilizationEnergyOverdrawMission 0
scalar OsgEarthNet.uav[20] utilizationEnergyOverdrawMaintenance 0
scalar OsgEarthNet.uav[20] utilizationCountMissions 1
scalar OsgEarthNet.uav[20] utilizationCountManeuversMission 7
scalar OsgEarthNet.uav[20] utilizationCountManeuversMaintenance 2
scalar OsgEarthNet.uav[20] utilizationCountChargeState 1
scalar OsgEarthNet.uav[20] utilizationCountOverdrawnAfterMission 0
scalar OsgEarthNet.uav[20] utilizationCountIdleState 2
scalar OsgEarthNet.uav[20] utilizationFail 0
scalar OsgEarthNet.uav[20] simulationTime 259200
scalar OsgEarthNet.uav[21] utilizationSecMission 27726.965643282
scalar OsgEarthNet.uav[21] utilizationSecMaintenance 22880.495471688
scalar OsgEarthNet.uav[21] utilizationSecCharge 179320.53688503
scalar OsgEarthNet.uav[21] utilizationSecIdle 29272.001
scalar OsgEarthNet.uav[21] utilizationEnergyMission 133217.70118713
scalar OsgEarthNet.uav[21] utilizationEnergyMaintenance 106414.08889008
scalar OsgEarthNet.uav[21] utilizationEnergyCharge 234058.48278809
scalar OsgEarthNet.uav[21] utilizationEnergyOverdrawMission 0
scalar OsgEarthNet.uav[21] utilizationEnergyOverdrawMaintenance 0
scalar OsgEarthNet.uav[21] utilizationCountMissions 55
scalar OsgEarthNet.uav[21] utilizationCountManeuversMission 807
scalar OsgEarthNet.uav[21] utilizationCountManeuversMaintenance 110
scalar OsgEarthNet.uav[21] utilizationCountChargeState 55
scalar OsgEarthNet.uav[21] utilizationCountOverdrawnAfterMission 0
scalar OsgEarthNet.uav[21] utilizationCountIdleState 55
scalar OsgEarthNet.uav[21] utilizationFail 0
scalar OsgEarthNet.uav[21] simulationTime 259200
scalar OsgEarthNet.uav[22] utilizationSecMission 22271.556567201
scalar OsgEarthNet.uav[22] utilizationSecMaintenance 22850.81424374
scalar OsgEarthNet.uav[22] utilizationSecCharge 162715.62118906
scalar OsgEarthNet.uav[22] utilizationSecIdle 51362.007
scalar OsgEarthNet.uav[22] utilizationEnergyMission 108433.9239006
scalar OsgEarthNet.uav[22] utilizationEnergyMaintenance 107202.71274948
scalar OsgEarthNet.uav[22] utilizationEnergyCharge 214271.50073242
scalar OsgEarthNet.uav[22] utilizationEnergyOverdrawMission 0
scalar OsgEarthNet.uav[22] utilizationEnergyOverdrawMaintenance 185.81019973755
scalar OsgEarthNet.uav[22] utilizationCountMissions 49
scalar OsgEarthNet.uav[22] utilizationCountManeuversMission 681
scalar OsgEarthNet.uav[22] utilizationCountManeuversMaintenance 98
scalar OsgEarthNet.uav[22] utilizationCountChargeState 49
scalar OsgEarthNet.uav[22] utilizationCountOverdrawnAfterMission 2
scalar OsgEarthNet.uav[22] utilizationCountIdleState 49
scalar OsgEarthNet.uav[22] utilizationFail 0
scalar OsgEarthNet.uav[22] simulationTime 259200
scalar OsgEarthNet.uav[23] utilizationSecMission 23921.347792318
scalar OsgEarthNet.uav[23] utilizationSecMaintenance 24946.643207682
scalar OsgEarthNet.uav[23] utilizationSecCharge 176180
scalar OsgEarthNet.uav[23] utilizationSecIdle 34152.008
scalar OsgEarthNet.uav[23] utilizationEnergyMission 116060.36698151
scalar OsgEarthNet.uav[23] utilizationEnergyMaintenance 116579.98406363
scalar OsgEarthNet.uav[23] utilizationEnergyCharge 230239.38183594
scalar OsgEarthNet.uav[23] utilizationEnergyOverdrawMission 0
scalar OsgEarthNet.uav[23] utilizationEnergyOverdrawMaintenance 0
scalar OsgEarthNet.uav[23] utilizationCountMissions 53
scalar OsgEarthNet.uav[23] utilizationCountManeuversMission 747
scalar OsgEarthNet.uav[23] utilizationCountManeuversMaintenance 107
scalar OsgEarthNet.uav[23] utilizationCountChargeState 53
scalar OsgEarthNet.uav[23] utilizationCountOverdrawnAfterMission 0
scalar OsgEarthNet.uav[23] utilizationCountIdleState 54
scalar OsgEarthNet.uav[23] utilizationFail 0
scalar OsgEarthNet.uav[23] simulationTime 259200
scalar OsgEarthNet.uav[24] utilizationSecMission 24914.191144429
scalar OsgEarthNet.uav[24] utilizationSecMaintenance 22993.912709591
scalar OsgEarthNet.uav[24] utilizationSecCharge 172789.88714598
scalar OsgEarthNet.uav[24] utilizationSecIdle 38502.008
scalar OsgEarthNet.uav[24] utilizationEnergyMission 120677.62346268
scalar OsgEarthNet.uav[24] utilizationEnergyMaintenance 108254.49960709
scalar OsgEarthNet.uav[24] utilizationEnergyCharge 227805.52075195
scalar OsgEarthNet.uav[24] utilizationEnergyOverdrawMission 0
scalar OsgEarthNet.uav[24] utilizationEnergyOverdrawMaintenance 0
scalar OsgEarthNet.uav[24] utilizationCountMissions 52
scalar OsgEarthNet.uav[24] utilizationCountManeuversMission 704
scalar OsgEarthNet.uav[24] utilizationCountManeuversMaintenance 104
scalar OsgEarthNet.uav[24] utilizationCountChargeState 52
scalar OsgEarthNet.uav[24] utilizationCountOverdrawnAfterMission 0
scalar OsgEarthNet.uav[24] utilizationCountIdleState 52
scalar OsgEarthNet.uav[24] utilizationFail 0
scalar OsgEarthNet.uav[24] simulationTime 259200
scalar OsgEarthNet.uav[25] utilizationSecMission 26836.899935181
scalar OsgEarthNet.uav[25] utilizationSecMaintenance 22867.211514605
scalar OsgEarthNet.uav[25] utilizationSecCharge 177746.46220292
scalar OsgEarthNet.uav[25] utilizationSecIdle 31749.42534729
scalar OsgEarthNet.uav[25] utilizationEnergyMission 132070.41757202
scalar OsgEarthNet.uav[25] utilizationEnergyMaintenance 103770.84893036
scalar OsgEarthNet.uav[25] utilizationEnergyCharge 231346.64093018
scalar OsgEarthNet.uav[25] utilizationEnergyOverdrawMission 0
scalar OsgEarthNet.uav[25] utilizationEnergyOverdrawMaintenance 0
scalar OsgEarthNet.uav[25] utilizationCountMissions 55
scalar OsgEarthNet.uav[25] utilizationCountManeuversMission 928
scalar OsgEarthNet.uav[25] utilizationCountManeuversMaintenance 110
scalar OsgEarthNet.uav[25] utilizationCountChargeState 55
scalar OsgEarthNet.uav[25] utilizationCountOverdrawnAfterMission 0
scalar OsgEarthNet.uav[25] utilizationCountIdleState 55
scalar OsgEarthNet.uav[25] utilizationFail 0
scalar OsgEarthNet.uav[25] simulationTime 259200
scalar OsgEarthNet.uav[26] utilizationSecMission 17997.91814068
scalar OsgEarthNet.uav[26] utilizationSecMaintenance 17663.944778868
scalar OsgEarthNet.uav[26] utilizationSecCharge 127510.98011912
scalar OsgEarthNet.uav[26] utilizationSecIdle 96027.155961328
scalar OsgEarthNet.uav[26] utilizationEnergyMission 88797.490913391
scalar OsgEarthNet.uav[26] utilizationEnergyMaintenance 81596.464347839
scalar OsgEarthNet.uav[26] utilizationEnergyCharge 167093.81774902
scalar OsgEarthNet.uav[26] utilizationEnergyOverdrawMission 0
scalar OsgEarthNet.uav[26] utilizationEnergyOverdrawMaintenance 0
scalar OsgEarthNet.uav[26] utilizationCountMissions 39
scalar OsgEarthNet.uav[26] utilizationCountManeuversMission 604
scalar OsgEarthNet.uav[26] utilizationCountManeuversMaintenance 78
scalar OsgEarthNet.uav[26] utilizationCountChargeState 39
scalar OsgEarthNet.uav[26] utilizationCountOverdrawnAfterMission 0
scalar OsgEarthNet.uav[26] utilizationCountIdleState 39
scalar OsgEarthNet.uav[26] utilizationFail 0
scalar OsgEarthNet.uav[26] simulationTime 259200
scalar OsgEarthNet.uav[27] utilizationSecMission 26305.942018047
scalar OsgEarthNet.uav[27] utilizationSecMaintenance 25472.056981953
scalar OsgEarthNet.uav[27] utilizationSecCharge 186560
scalar OsgEarthNet.uav[27] utilizationSecIdle 20862
scalar OsgEarthNet.uav[27] utilizationEnergyMission 128677.28501129
scalar OsgEarthNet.uav[27] utilizationEnergyMaintenance 118244.85784387
scalar OsgEarthNet.uav[27] utilizationEnergyCharge 243190.40087891
scalar OsgEarthNet.uav[27] utilizationEnergyOverdrawMission 0
scalar OsgEarthNet.uav[27] utilizationEnergyOverdrawMaintenance 0
scalar OsgEarthNet.uav[27] utilizationCountMissions 57
scalar OsgEarthNet.uav[27] utilizationCountManeuversMission 859
scalar OsgEarthNet.uav[27] utilizationCountManeuversMaintenance 114
scalar OsgEarthNet.uav[27] utilizationCountChargeState 56
scalar OsgEarthNet.uav[27] utilizationCountOverdrawnAfterMission 0
scalar OsgEarthNet.uav[27] utilizationCountIdleState 57
scalar OsgEarthNet.uav[27] utilizationFail 0
scalar OsgEarthNet.uav[27] simulationTime 259200
scalar OsgEarthNet.uav[28] utilizationSecMission 25170.594272939
scalar OsgEarthNet.uav[28] utilizationSecMaintenance 21038.478808421
scalar OsgEarthNet.uav[28] utilizationSecCharge 168818.92091864
scalar OsgEarthNet.uav[28] utilizationSecIdle 44172.005
scalar OsgEarthNet.uav[28] utilizationEnergyMission 122052.23527908
scalar OsgEarthNet.uav[28] utilizationEnergyMaintenance 97548.257164001
scalar OsgEarthNet.uav[28] utilizationEnergyCharge 220711.44287109
scalar OsgEarthNet.uav[28] utilizationEnergyOverdrawMission 0
scalar OsgEarthNet.uav[28] utilizationEnergyOverdrawMaintenance 0
scalar OsgEarthNet.uav[28] utilizationCountMissions 51
scalar OsgEarthNet.uav[28] utilizationCountManeuversMission 863
scalar OsgEarthNet.uav[28] utilizationCountManeuversMaintenance 102
scalar OsgEarthNet.uav[28] utilizationCountChargeState 51
scalar OsgEarthNet.uav[28] utilizationCountOverdrawnAfterMission 0
scalar OsgEarthNet.uav[28] utilizationCountIdleState 51
scalar OsgEarthNet.uav[28] utilizationFail 0
scalar OsgEarthNet.uav[28] simulationTime 259200
scalar OsgEarthNet.uav[29] utilizationSecMission 24396.719253336
scalar OsgEarthNet.uav[29] utilizationSecMaintenance 24901.796999946
scalar OsgEarthNet.uav[29] utilizationSecCharge 180059.47774672
scalar OsgEarthNet.uav[29] utilizationSecIdle 29842.005
scalar OsgEarthNet.uav[29] utilizationEnergyMission 119522.95755005
scalar OsgEarthNet.uav[29] utilizationEnergyMaintenance 116720.06984711
scalar OsgEarthNet.uav[29] utilizationEnergyCharge 235149.11425781
scalar OsgEarthNet.uav[29] utilizationEnergyOverdrawMission 0
scalar OsgEarthNet.uav[29] utilizationEnergyOverdrawMaintenance 0
scalar OsgEarthNet.uav[29] utilizationCountMissions 55
scalar OsgEarthNet.uav[29] utilizationCountManeuversMission 873
scalar OsgEarthNet.uav[29] utilizationCountManeuversMaintenance 110
scalar OsgEarthNet.uav[29] utilizationCountChargeState 55
scalar OsgEarthNet.uav[29] utilizationCountOverdrawnAfterMission 0
scalar OsgEarthNet.uav[29] utilizationCountIdleState 55
scalar OsgEarthNet.uav[29] utilizationFail 0
scalar OsgEarthNet.uav[29] simulationTime 259200
scalar OsgEarthNet.uav[30] utilizationSecMission 1025.059723489
scalar OsgEarthNet.uav[30] utilizationSecMaintenance 914.36641622853
scalar OsgEarthNet.uav[30] utilizationSecCharge 6840
scalar OsgEarthNet.uav[30] utilizationSecIdle 250420.57286028
scalar OsgEarthNet.uav[30] utilizationEnergyMission 5029.7753982544
scalar OsgEarthNet.uav[30] utilizationEnergyMaintenance 4177.0571632385
scalar OsgEarthNet.uav[30] utilizationEnergyCharge 9066.0991210938
scalar OsgEarthNet.uav[30] utilizationEnergyOverdrawMission 0
scalar OsgEarthNet.uav[30] utilizationEnergyOverdrawMaintenance 0
scalar OsgEarthNet.uav[30] utilizationCountMissions 2
scalar OsgEarthNet.uav[30] utilizationCountManeuversMission 33
scalar OsgEarthNet.uav[30] utilizationCountManeuversMaintenance 4
scalar OsgEarthNet.uav[30] utilizationCountChargeState 2
scalar OsgEarthNet.uav[30] utilizationCountOverdrawnAfterMission 0
scalar OsgEarthNet.uav[30] utilizationCountIdleState 3
scalar OsgEarthNet.uav[30] utilizationFail 0
scalar OsgEarthNet.uav[30] simulationTime 259200
scalar OsgEarthNet.uav[31] utilizationSecMission 25273.958431586
scalar OsgEarthNet.uav[31] utilizationSecMaintenance 24499.359760526
scalar OsgEarthNet.uav[31] utilizationSecCharge 179620
scalar OsgEarthNet.uav[31] utilizationSecIdle 29806.680807888
scalar OsgEarthNet.uav[31] utilizationEnergyMission 120438.97595895
scalar OsgEarthNet.uav[31] utilizationEnergyMaintenance 113826.86681747
scalar OsgEarthNet.uav[31] utilizationEnergyCharge 234684.23754883
scalar OsgEarthNet.uav[31] utilizationEnergyOverdrawMission 0
scalar OsgEarthNet.uav[31] utilizationEnergyOverdrawMaintenance 0
scalar OsgEarthNet.uav[31] utilizationCountMissions 54
scalar OsgEarthNet.uav[31] utilizationCountManeuversMission 704
scalar OsgEarthNet.uav[31] utilizationCountManeuversMaintenance 109
scalar OsgEarthNet.uav[31] utilizationCountChargeState 54
scalar OsgEarthNet.uav[31] utilizationCountOverdrawnAfterMission 0
scalar OsgEarthNet.uav[31] utilizationCountIdleState 55
scalar OsgEarthNet.uav[31] utilizationFail 0
scalar OsgEarthNet.uav[31] simulationTime 259200
scalar OsgEarthNet.uav[32] utilizationSecMission 28118.616622425
scalar OsgEarthNet.uav[32] utilizationSecMaintenance 22591.174005404
scalar OsgEarthNet.uav[32] utilizationSecCharge 183970
scalar OsgEarthNet.uav[32] utilizationSecIdle 24520.208372171
scalar OsgEarthNet.uav[32] utilizationEnergyMission 134602.16044235
scalar OsgEarthNet.uav[32] utilizationEnergyMaintenance 105290.16751862
scalar OsgEarthNet.uav[32] utilizationEnergyCharge 240648.90649414
scalar OsgEarthNet.uav[32] utilizationEnergyOverdrawMission 0
scalar OsgEarthNet.uav[32] utilizationEnergyOverdrawMaintenance 0
scalar OsgEarthNet.uav[32] utilizationCountMissions 55
scalar OsgEarthNet.uav[32] utilizationCountManeuversMission 791
scalar OsgEarthNet.uav[32] utilizationCountManeuversMaintenance 110
scalar OsgEarthNet.uav[32] utilizationCountChargeState 55
scalar OsgEarthNet.uav[32] utilizationCountOverdrawnAfterMission 0
scalar OsgEarthNet.uav[32] utilizationCountIdleState 56
scalar OsgEarthNet.uav[32] utilizationFail 0
scalar OsgEarthNet.uav[32] simulationTime 259200
scalar OsgEarthNet.uav[33] utilizationSecMission 2221.994374484
scalar OsgEarthNet.uav[33] utilizationSecMaintenance 2315.2148137713
scalar OsgEarthNet.uav[33] utilizationSecCharge 16440
scalar OsgEarthNet.uav[33] utilizationSecIdle 238222.78981174
scalar OsgEarthNet.uav[33] utilizationEnergyMission 10505.398635864
scalar OsgEarthNet.uav[33] utilizationEnergyMaintenance 10776.21188736
scalar OsgEarthNet.uav[33] utilizationEnergyCharge 21265.076904297
scalar OsgEarthNet.uav[33] utilizationEnergyOverdrawMission 0
scalar OsgEarthNet.uav[33] utilizationEnergyOverdrawMaintenance 0
scalar OsgEarthNet.uav[33] utilizationCountMissions 5
scalar OsgEarthNet.uav[33] utilizationCountManeuversMission 61
scalar OsgEarthNet.uav[33] utilizationCountManeuversMaintenance 10
scalar OsgEarthNet.uav[33] utilizationCountChargeState 5
scalar OsgEarthNet.uav[33] utilizationCountOverdrawnAfterMission 0
scalar OsgEarthNet.uav[33] utilizationCountIdleState 6
scalar OsgEarthNet.uav[33] utilizationFail 0
scalar OsgEarthNet.uav[33] simulationTime 259200
scalar OsgEarthNet.uav[34] utilizationSecMission 25272.729446051
scalar OsgEarthNet.uav[34] utilizationSecMaintenance 23599.125853733
scalar OsgEarthNet.uav[34] utilizationSecCharge 177286.13970022
scalar OsgEarthNet.uav[34] utilizationSecIdle 33042.004
scalar OsgEarthNet.uav[34] utilizationEnergyMission 123717.45100021
scalar OsgEarthNet.uav[34] utilizationEnergyMaintenance 110205.85652542
scalar OsgEarthNet.uav[34] utilizationEnergyCharge 231019.78491211
scalar OsgEarthNet.uav[34] utilizationEnergyOverdrawMission 0
scalar OsgEarthNet.uav[34] utilizationEnergyOverdrawMaintenance 0
scalar OsgEarthNet.uav[34] utilizationCountMissions 54
scalar OsgEarthNet.uav[34] utilizationCountManeuversMission 847
scalar OsgEarthNet.uav[34] utilizationCountManeuversMaintenance 108
scalar OsgEarthNet.uav[34] utilizationCountChargeState 54
scalar OsgEarthNet.uav[34] utilizationCountOverdrawnAfterMission 0
scalar OsgEarthNet.uav[34] utilizationCountIdleState 54
scalar OsgEarthNet.uav[34] utilizationFail 0
scalar OsgEarthNet.uav[34] simulationTime 259200
scalar OsgEarthNet.uav[35] utilizationSecMission 26727.796255452
scalar OsgEarthNet.uav[35] utilizationSecMaintenance 22480.200744548
scalar OsgEarthNet.uav[35] utilizationSecCharge 178210
scalar OsgEarthNet.uav[35] utilizationSecIdle 31782.002
scalar OsgEarthNet.uav[35] utilizationEnergyMission 128818.12763977
scalar OsgEarthNet.uav[35] utilizationEnergyMaintenance 104498.67567665
scalar OsgEarthNet.uav[35] utilizationEnergyCharge 233958.91357422
scalar OsgEarthNet.uav[35] utilizationEnergyOverdrawMission 0
scalar OsgEarthNet.uav[35] utilizationEnergyOverdrawMaintenance 398.04486083984
scalar OsgEarthNet.uav[35] utilizationCountMissions 53
scalar OsgEarthNet.uav[35] utilizationCountManeuversMission 851
scalar OsgEarthNet.uav[35] utilizationCountManeuversMaintenance 107
scalar OsgEarthNet.uav[35] utilizationCountChargeState 53
scalar OsgEarthNet.uav[35] utilizationCountOverdrawnAfterMission 1
scalar OsgEarthNet.uav[35] utilizationCountIdleState 54
scalar OsgEarthNet.uav[35] utilizationFail 0
scalar OsgEarthNet.uav[35] simulationTime 259200
scalar OsgEarthNet.uav[36] utilizationSecMission 24461.365762659
scalar OsgEarthNet.uav[36] utilizationSecMaintenance 25088.062812957
scalar OsgEarthNet.uav[36] utilizationSecCharge 177130
scalar OsgEarthNet.uav[36] utilizationSecIdle 32520.570424384
scalar OsgEarthNet.uav[36] utilizationEnergyMission 118627.97078705
scalar OsgEarthNet.uav[36] utilizationEnergyMaintenance 116102.01142216
scalar OsgEarthNet.uav[36] utilizationEnergyCharge 231948.83935547
scalar OsgEarthNet.uav[36] utilizationEnergyOverdrawMission 0
scalar OsgEarthNet.uav[36] utilizationEnergyOverdrawMaintenance 0
scalar OsgEarthNet.uav[36] utilizationCountMissions 53
scalar OsgEarthNet.uav[36] utilizationCountManeuversMission 767
scalar OsgEarthNet.uav[36] utilizationCountManeuversMaintenance 107
scalar OsgEarthNet.uav[36] utilizationCountChargeState 53
scalar OsgEarthNet.uav[36] utilizationCountOverdrawnAfterMission 0
scalar OsgEarthNet.uav[36] utilizationCountIdleState 54
scalar OsgEarthNet.uav[36] utilizationFail 0
scalar OsgEarthNet.uav[36] simulationTime 259200
scalar OsgEarthNet.uav[37] utilizationSecMission 17900.073917061
scalar OsgEarthNet.uav[37] utilizationSecMaintenance 19474.479994249
scalar OsgEarthNet.uav[37] utilizationSecCharge 132810
scalar OsgEarthNet.uav[37] utilizationSecIdle 89015.445088691
scalar OsgEarthNet.uav[37] utilizationEnergyMission 87877.920127869
scalar OsgEarthNet.uav[37] utilizationEnergyMaintenance 89712.310766448
scalar OsgEarthNet.uav[37] utilizationEnergyCharge 173210.25488281
scalar OsgEarthNet.uav[37] utilizationEnergyOverdrawMission 0
scalar OsgEarthNet.uav[37] utilizationEnergyOverdrawMaintenance 0
scalar OsgEarthNet.uav[37] utilizationCountMissions 41
scalar OsgEarthNet.uav[37] utilizationCountManeuversMission 562
scalar OsgEarthNet.uav[37] utilizationCountManeuversMaintenance 82
scalar OsgEarthNet.uav[37] utilizationCountChargeState 40
scalar OsgEarthNet.uav[37] utilizationCountOverdrawnAfterMission 0
scalar OsgEarthNet.uav[37] utilizationCountIdleState 41
scalar OsgEarthNet.uav[37] utilizationFail 0
scalar OsgEarthNet.uav[37] simulationTime 259200
scalar OsgEarthNet.uav[38] utilizationSecMission 25651.977843039
scalar OsgEarthNet.uav[38] utilizationSecMaintenance 16354.729943645
scalar OsgEarthNet.uav[38] utilizationSecCharge 148072.58315623
scalar OsgEarthNet.uav[38] utilizationSecIdle 69120.70805709
scalar OsgEarthNet.uav[38] utilizationEnergyMission 123838.82919312
scalar OsgEarthNet.uav[38] utilizationEnergyMaintenance 76315.394744873
scalar OsgEarthNet.uav[38] utilizationEnergyCharge 194943.53686523
scalar OsgEarthNet.uav[38] utilizationEnergyOverdrawMission 0
scalar OsgEarthNet.uav[38] utilizationEnergyOverdrawMaintenance 0
scalar OsgEarthNet.uav[38] utilizationCountMissions 45
scalar OsgEarthNet.uav[38] utilizationCountManeuversMission 668
scalar OsgEarthNet.uav[38] utilizationCountManeuversMaintenance 90
scalar OsgEarthNet.uav[38] utilizationCountChargeState 45
scalar OsgEarthNet.uav[38] utilizationCountOverdrawnAfterMission 0
scalar OsgEarthNet.uav[38] utilizationCountIdleState 45
scalar OsgEarthNet.uav[38] utilizationFail 0
scalar OsgEarthNet.uav[38] simulationTime 259200
scalar OsgEarthNet.uav[39] utilizationSecMission 25517.439777437
scalar OsgEarthNet.uav[39] utilizationSecMaintenance 25000.057719362
scalar OsgEarthNet.uav[39] utilizationSecCharge 182280.4975032
scalar OsgEarthNet.uav[39] utilizationSecIdle 26402.004
scalar OsgEarthNet.uav[39] utilizationEnergyMission 124254.27006149
scalar OsgEarthNet.uav[39] utilizationEnergyMaintenance 116627.3141098
scalar OsgEarthNet.uav[39] utilizationEnergyCharge 238313.03881836
scalar OsgEarthNet.uav[39] utilizationEnergyOverdrawMission 0
scalar OsgEarthNet.uav[39] utilizationEnergyOverdrawMaintenance 0
scalar OsgEarthNet.uav[39] utilizationCountMissions 56
scalar OsgEarthNet.uav[39] utilizationCountManeuversMission 856
scalar OsgEarthNet.uav[39] utilizationCountManeuversMaintenance 112
scalar OsgEarthNet.uav[39] utilizationCountChargeState 56
scalar OsgEarthNet.uav[39] utilizationCountOverdrawnAfterMission 0
scalar OsgEarthNet.uav[39] utilizationCountIdleState 56
scalar OsgEarthNet.uav[39] utilizationFail 0
scalar OsgEarthNet.uav[39] simulationTime 259200
scalar OsgEarthNet.uav[40] utilizationSecMission 800
scalar OsgEarthNet.uav[40] utilizationSecMaintenance 922.28111982631
scalar OsgEarthNet.uav[40] utilizationSecCharge 6370
scalar OsgEarthNet.uav[40] utilizationSecIdle 251107.71788017
scalar OsgEarthNet.uav[40] utilizationEnergyMission 4045.0604400635
scalar OsgEarthNet.uav[40] utilizationEnergyMaintenance 4050.2279281616
scalar OsgEarthNet.uav[40] utilizationEnergyCharge 8322.7788085938
scalar OsgEarthNet.uav[40] utilizationEnergyOverdrawMission 0
scalar OsgEarthNet.uav[40] utilizationEnergyOverdrawMaintenance 0
scalar OsgEarthNet.uav[40] utilizationCountMissions 2
scalar OsgEarthNet.uav[40] utilizationCountManeuversMission 40
scalar OsgEarthNet.uav[40] utilizationCountManeuversMaintenance 4
scalar OsgEarthNet.uav[40] utilizationCountChargeState 2
scalar OsgEarthNet.uav[40] utilizationCountOverdrawnAfterMission 0
scalar OsgEarthNet.uav[40] utilizationCountIdleState 3
scalar OsgEarthNet.uav[40] utilizationFail 0
scalar OsgEarthNet.uav[40] simulationTime 259200
scalar OsgEarthNet.uav[41] utilizationSecMission 25570.595770082
scalar OsgEarthNet.uav[41] utilizationSecMaintenance 23752.408088516
scalar OsgEarthNet.uav[41] utilizationSecCharge 178917.61113682
scalar OsgEarthNet.uav[41] utilizationSecIdle 30959.384004586
scalar OsgEarthNet.uav[41] utilizationEnergyMission 123167.84857559
scalar OsgEarthNet.uav[41] utilizationEnergyMaintenance 111426.49207306
scalar OsgEarthNet.uav[41] utilizationEnergyCharge 233312.7746582
scalar OsgEarthNet.uav[41] utilizationEnergyOverdrawMission 0
scalar OsgEarthNet.uav[41] utilizationEnergyOverdrawMaintenance 0
scalar OsgEarthNet.uav[41] utilizationCountMissions 54
scalar OsgEarthNet.uav[41] utilizationCountManeuversMission 741
scalar OsgEarthNet.uav[41] utilizationCountManeuversMaintenance 108
scalar OsgEarthNet.uav[41] utilizationCountChargeState 54
scalar OsgEarthNet.uav[41] utilizationCountOverdrawnAfterMission 0
scalar OsgEarthNet.uav[41] utilizationCountIdleState 54
scalar OsgEarthNet.uav[41] utilizationFail 0
scalar OsgEarthNet.uav[41] simulationTime 259200
scalar OsgEarthNet.uav[42] utilizationSecMission 12996.488550178
scalar OsgEarthNet.uav[42] utilizationSecMaintenance 14207.487181821
scalar OsgEarthNet.uav[42] utilizationSecCharge 96710
scalar OsgEarthNet.uav[42] utilizationSecIdle 135286.023268
scalar OsgEarthNet.uav[42] utilizationEnergyMission 61644.886452999
scalar OsgEarthNet.uav[42] utilizationEnergyMaintenance 65976.476482391
scalar OsgEarthNet.uav[42] utilizationEnergyCharge 126308.53515625
scalar OsgEarthNet.uav[42] utilizationEnergyOverdrawMission 0
scalar OsgEarthNet.uav[42] utilizationEnergyOverdrawMaintenance 176.29443359375
scalar OsgEarthNet.uav[42] utilizationCountMissions 29
scalar OsgEarthNet.uav[42] utilizationCountManeuversMission 327
scalar OsgEarthNet.uav[42] utilizationCountManeuversMaintenance 59
scalar OsgEarthNet.uav[42] utilizationCountChargeState 29
scalar OsgEarthNet.uav[42] utilizationCountOverdrawnAfterMission 1
scalar OsgEarthNet.uav[42] utilizationCountIdleState 30
scalar OsgEarthNet.uav[42] utilizationFail 0
scalar OsgEarthNet.uav[42] simulationTime 259200
scalar OsgEarthNet.uav[43] utilizationSecMission 18225.087072332
scalar OsgEarthNet.uav[43] utilizationSecMaintenance 14633.961672004
scalar OsgEarthNet.uav[43] utilizationSecCharge 116180
scalar OsgEarthNet.uav[43] utilizationSecIdle 110160.95025566
scalar OsgEarthNet.uav[43] utilizationEnergyMission 87948.181129255
scalar OsgEarthNet.uav[43] utilizationEnergyMaintenance 68090.527320862
scalar OsgEarthNet.uav[43] utilizationEnergyCharge 151918.23168945
scalar OsgEarthNet.uav[43] utilizationEnergyOverdrawMission 0
scalar OsgEarthNet.uav[43] utilizationEnergyOverdrawMaintenance 0
scalar OsgEarthNet.uav[43] utilizationCountMissions 35
scalar OsgEarthNet.uav[43] utilizationCountManeuversMission 534
scalar OsgEarthNet.uav[43] utilizationCountManeuversMaintenance 71
scalar OsgEarthNet.uav[43] utilizationCountChargeState 35
scalar OsgEarthNet.uav[43] utilizationCountOverdrawnAfterMission 0
scalar OsgEarthNet.uav[43] utilizationCountIdleState 36
scalar OsgEarthNet.uav[43] utilizationFail 0
scalar OsgEarthNet.uav[43] simulationTime 259200
scalar OsgEarthNet.uav[44] utilizationSecMission 24631.164962316
scalar OsgEarthNet.uav[44] utilizationSecMaintenance 19985.642661626
scalar OsgEarthNet.uav[44] utilizationSecCharge 160291.18237606
scalar OsgEarthNet.uav[44] utilizationSecIdle 54292.009
scalar OsgEarthNet.uav[44] utilizationEnergyMission 119245.13350677
scalar OsgEarthNet.uav[44] utilizationEnergyMaintenance 93073.309680939
scalar OsgEarthNet.uav[44] utilizationEnergyCharge 209939.55883789
scalar OsgEarthNet.uav[44] utilizationEnergyOverdrawMission 0
scalar OsgEarthNet.uav[44] utilizationEnergyOverdrawMaintenance 0
scalar OsgEarthNet.uav[44] utilizationCountMissions 49
scalar OsgEarthNet.uav[44] utilizationCountManeuversMission 719
scalar OsgEarthNet.uav[44] utilizationCountManeuversMaintenance 98
scalar OsgEarthNet.uav[44] utilizationCountChargeState 49
scalar OsgEarthNet.uav[44] utilizationCountOverdrawnAfterMission 0
scalar OsgEarthNet.uav[44] utilizationCountIdleState 49
scalar OsgEarthNet.uav[44] utilizationFail 0
scalar OsgEarthNet.uav[44] simulationTime 259200
scalar OsgEarthNet.uav[45] utilizationSecMission 23526.074310868
scalar OsgEarthNet.uav[45] utilizationSecMaintenance 24475.592636996
scalar OsgEarthNet.uav[45] utilizationSecCharge 174900
scalar OsgEarthNet.uav[45] utilizationSecIdle 36298.332052136
scalar OsgEarthNet.uav[45] utilizationEnergyMission 114229.66064835
scalar OsgEarthNet.uav[45] utilizationEnergyMaintenance 115309.57104492
scalar OsgEarthNet.uav[45] utilizationEnergyCharge 227740.60522461
scalar OsgEarthNet.uav[45] utilizationEnergyOverdrawMission 0
scalar OsgEarthNet.uav[45] utilizationEnergyOverdrawMaintenance 368.75064086914
scalar OsgEarthNet.uav[45] utilizationCountMissions 53
scalar OsgEarthNet.uav[45] utilizationCountManeuversMission 795
scalar OsgEarthNet.uav[45] utilizationCountManeuversMaintenance 106
scalar OsgEarthNet.uav[45] utilizationCountChargeState 53
scalar OsgEarthNet.uav[45] utilizationCountOverdrawnAfterMission 1
scalar OsgEarthNet.uav[45] utilizationCountIdleState 53
scalar OsgEarthNet.uav[45] utilizationFail 0
scalar OsgEarthNet.uav[45] simulationTime 259200
scalar OsgEarthNet.uav[46] utilizationSecMission 4243.2222220966
scalar OsgEarthNet.uav[46] utilizationSecMaintenance 5210.0058020835
scalar OsgEarthNet.uav[46] utilizationSecCharge 35620
scalar OsgEarthNet.uav[46] utilizationSecIdle 214126.77097582
scalar OsgEarthNet.uav[46] utilizationEnergyMission 20670.488761902
scalar OsgEarthNet.uav[46] utilizationEnergyMaintenance 24994.093223572
scalar OsgEarthNet.uav[46] utilizationEnergyCharge 46029.854003906
scalar OsgEarthNet.uav[46] utilizationEnergyOverdrawMission 0
scalar OsgEarthNet.uav[46] utilizationEnergyOverdrawMaintenance 0
scalar OsgEarthNet.uav[46] utilizationCountMissions 11
scalar OsgEarthNet.uav[46] utilizationCountManeuversMission 143
scalar OsgEarthNet.uav[46] utilizationCountManeuversMaintenance 22
scalar OsgEarthNet.uav[46] utilizationCountChargeState 11
scalar OsgEarthNet.uav[46] utilizationCountOverdrawnAfterMission 0
scalar OsgEarthNet.uav[46] utilizationCountIdleState 12
scalar OsgEarthNet.uav[46] utilizationFail 0
scalar OsgEarthNet.uav[46] simulationTime 259200
scalar OsgEarthNet.uav[47] utilizationSecMission 9186.1495662329
scalar OsgEarthNet.uav[47] utilizationSecMaintenance 8194.8759889588
scalar OsgEarthNet.uav[47] utilizationSecCharge 63150
scalar OsgEarthNet.uav[47] utilizationSecIdle 178668.97344481
scalar OsgEarthNet.uav[47] utilizationEnergyMission 43288.266017914
scalar OsgEarthNet.uav[47] utilizationEnergyMaintenance 38319.854400635
scalar OsgEarthNet.uav[47] utilizationEnergyCharge 82902.997070312
scalar OsgEarthNet.uav[47] utilizationEnergyOverdrawMission 0
scalar OsgEarthNet.uav[47] utilizationEnergyOverdrawMaintenance 0
scalar OsgEarthNet.uav[47] utilizationCountMissions 19
scalar OsgEarthNet.uav[47] utilizationCountManeuversMission 311
scalar OsgEarthNet.uav[47] utilizationCountManeuversMaintenance 38
scalar OsgEarthNet.uav[47] utilizationCountChargeState 19
scalar OsgEarthNet.uav[47] utilizationCountOverdrawnAfterMission 0
scalar OsgEarthNet.uav[47] utilizationCountIdleState 19
scalar OsgEarthNet.uav[47] utilizationFail 0
scalar OsgEarthNet.uav[47] simulationTime 259200
scalar OsgEarthNet.uav[48] utilizationSecMission 17558.560422571
scalar OsgEarthNet.uav[48] utilizationSecMaintenance 17792.674996452
scalar OsgEarthNet.uav[48] utilizationSecCharge 123696.76358098
scalar OsgEarthNet.uav[48] utilizationSecIdle 100152
scalar OsgEarthNet.uav[48] utilizationEnergyMission 84916.108340694
scalar OsgEarthNet.uav[48] utilizationEnergyMaintenance 81529.335971832
scalar OsgEarthNet.uav[48] utilizationEnergyCharge 162319.94433594
scalar OsgEarthNet.uav[48] utilizationEnergyOverdrawMission 0
scalar OsgEarthNet.uav[48] utilizationEnergyOverdrawMaintenance 0
scalar OsgEarthNet.uav[48] utilizationCountMissions 38
scalar OsgEarthNet.uav[48] utilizationCountManeuversMission 538
scalar OsgEarthNet.uav[48] utilizationCountManeuversMaintenance 75
scalar OsgEarthNet.uav[48] utilizationCountChargeState 38
scalar OsgEarthNet.uav[48] utilizationCountOverdrawnAfterMission 0
scalar OsgEarthNet.uav[48] utilizationCountIdleState 36
scalar OsgEarthNet.uav[48] utilizationFail 0
scalar OsgEarthNet.uav[48] simulationTime 259200
scalar OsgEarthNet.uav[49] utilizationSecMission 26130.440685997
scalar OsgEarthNet.uav[49] utilizationSecMaintenance 22557.681411286
scalar OsgEarthNet.uav[49] utilizationSecCharge 176820
scalar OsgEarthNet.uav[49] utilizationSecIdle 33691.876902717
scalar OsgEarthNet.uav[49] utilizationEnergyMission 128330.24466324
scalar OsgEarthNet.uav[49] utilizationEnergyMaintenance 105288.88724136
scalar OsgEarthNet.uav[49] utilizationEnergyCharge 229711.71411133
scalar OsgEarthNet.uav[49] utilizationEnergyOverdrawMission 0
scalar OsgEarthNet.uav[49] utilizationEnergyOverdrawMaintenance 0
scalar OsgEarthNet.uav[49] utilizationCountMissions 54
scalar OsgEarthNet.uav[49] utilizationCountManeuversMission 880
scalar OsgEarthNet.uav[49] utilizationCountManeuversMaintenance 108
scalar OsgEarthNet.uav[49] utilizationCountChargeState 54
scalar OsgEarthNet.uav[49] utilizationCountOverdrawnAfterMission 0
scalar OsgEarthNet.uav[49] utilizationCountIdleState 54
scalar OsgEarthNet.uav[49] utilizationFail 0
scalar OsgEarthNet.uav[49] simulationTime 259200
scalar OsgEarthNet.uav[50] utilizationSecMission 26684.427307755
scalar OsgEarthNet.uav[50] utilizationSecMaintenance 24258.417160824
scalar OsgEarthNet.uav[50] utilizationSecCharge 182433.15960667
scalar OsgEarthNet.uav[50] utilizationSecIdle 25823.994924748
scalar OsgEarthNet.uav[50] utilizationEnergyMission 129620.17891312
scalar OsgEarthNet.uav[50] utilizationEnergyMaintenance 113328.60959244
scalar OsgEarthNet.uav[50] utilizationEnergyCharge 240535.07995605
scalar OsgEarthNet.uav[50] utilizationEnergyOverdrawMission 0
scalar OsgEarthNet.uav[50] utilizationEnergyOverdrawMaintenance 0
scalar OsgEarthNet.uav[50] utilizationCountMissions 55
scalar OsgEarthNet.uav[50] utilizationCountManeuversMission 779
scalar OsgEarthNet.uav[50] utilizationCountManeuversMaintenance 110
scalar OsgEarthNet.uav[50] utilizationCountChargeState 55
scalar OsgEarthNet.uav[50] utilizationCountOverdrawnAfterMission 0
scalar OsgEarthNet.uav[50] utilizationCountIdleState 51
scalar OsgEarthNet.uav[50] utilizationFail 0
scalar OsgEarthNet.uav[50] simulationTime 259200
scalar OsgEarthNet.uav[51] utilizationSecMission 24550.114863056
scalar OsgEarthNet.uav[51] utilizationSecMaintenance 21833.288023649
scalar OsgEarthNet.uav[51] utilizationSecCharge 166266.57783038
scalar OsgEarthNet.uav[51] utilizationSecIdle 46550.018282913
scalar OsgEarthNet.uav[51] utilizationEnergyMission 118149.25227737
scalar OsgEarthNet.uav[51] utilizationEnergyMaintenance 101679.174263
scalar OsgEarthNet.uav[51] utilizationEnergyCharge 217831.82104492
scalar OsgEarthNet.uav[51] utilizationEnergyOverdrawMission 0
scalar OsgEarthNet.uav[51] utilizationEnergyOverdrawMaintenance 0
scalar OsgEarthNet.uav[51] utilizationCountMissions 51
scalar OsgEarthNet.uav[51] utilizationCountManeuversMission 770
scalar OsgEarthNet.uav[51] utilizationCountManeuversMaintenance 102
scalar OsgEarthNet.uav[51] utilizationCountChargeState 51
scalar OsgEarthNet.uav[51] utilizationCountOverdrawnAfterMission 0
scalar OsgEarthNet.uav[51] utilizationCountIdleState 50
scalar OsgEarthNet.uav[51] utilizationFail 0
scalar OsgEarthNet.uav[51] simulationTime 259200
scalar OsgEarthNet.uav[52] utilizationSecMission 24620.305332241
scalar OsgEarthNet.uav[52] utilizationSecMaintenance 25057.690667759
scalar OsgEarthNet.uav[52] utilizationSecCharge 177060
scalar OsgEarthNet.uav[52] utilizationSecIdle 32462.003
scalar OsgEarthNet.uav[52] utilizationEnergyMission 119503.05918594
scalar OsgEarthNet.uav[52] utilizationEnergyMaintenance 115113.95627594
scalar OsgEarthNet.uav[52] utilizationEnergyCharge 231868.10668945
scalar OsgEarthNet.uav[52] utilizationEnergyOverdrawMission 0
scalar OsgEarthNet.uav[52] utilizationEnergyOverdrawMaintenance 0
scalar OsgEarthNet.uav[52] utilizationCountMissions 53
scalar OsgEarthNet.uav[52] utilizationCountManeuversMission 758
scalar OsgEarthNet.uav[52] utilizationCountManeuversMaintenance 107
scalar OsgEarthNet.uav[52] utilizationCountChargeState 53
scalar OsgEarthNet.uav[52] utilizationCountOverdrawnAfterMission 0
scalar OsgEarthNet.uav[52] utilizationCountIdleState 52
scalar OsgEarthNet.uav[52] utilizationFail 0
scalar OsgEarthNet.uav[52] simulationTime 259200
scalar OsgEarthNet.uav[53] utilizationSecMission 21315.328796478
scalar OsgEarthNet.uav[53] utilizationSecMaintenance 17300.458144591
scalar OsgEarthNet.uav[53] utilizationSecCharge 139509.56662447
scalar OsgEarthNet.uav[53] utilizationSecIdle 81074.645434462
scalar OsgEarthNet.uav[53] utilizationEnergyMission 102256.88326645
scalar OsgEarthNet.uav[53] utilizationEnergyMaintenance 81953.211166382
scalar OsgEarthNet.uav[53] utilizationEnergyCharge 182730.3425293
scalar OsgEarthNet.uav[53] utilizationEnergyOverdrawMission 0
scalar OsgEarthNet.uav[53] utilizationEnergyOverdrawMaintenance 0
scalar OsgEarthNet.uav[53] utilizationCountMissions 43
scalar OsgEarthNet.uav[53] utilizationCountManeuversMission 619
scalar OsgEarthNet.uav[53] utilizationCountManeuversMaintenance 86
scalar OsgEarthNet.uav[53] utilizationCountChargeState 43
scalar OsgEarthNet.uav[53] utilizationCountOverdrawnAfterMission 0
scalar OsgEarthNet.uav[53] utilizationCountIdleState 40
scalar OsgEarthNet.uav[53] utilizationFail 0
scalar OsgEarthNet.uav[53] simulationTime 259200
scalar OsgEarthNet.uav[54] utilizationSecMission 22980.657301862
scalar OsgEarthNet.uav[54] utilizationSecMaintenance 24285.775400739
scalar OsgEarthNet.uav[54] utilizationSecCharge 173470
scalar OsgEarthNet.uav[54] utilizationSecIdle 38463.566297398
scalar OsgEarthNet.uav[54] utilizationEnergyMission 112659.52342987
scalar OsgEarthNet.uav[54] utilizationEnergyMaintenance 113605.00363159
scalar OsgEarthNet.uav[54] utilizationEnergyCharge 226938.7578125
scalar OsgEarthNet.uav[54] utilizationEnergyOverdrawMission 0
scalar OsgEarthNet.uav[54] utilizationEnergyOverdrawMaintenance 160.19645690918
scalar OsgEarthNet.uav[54] utilizationCountMissions 52
scalar OsgEarthNet.uav[54] utilizationCountManeuversMission 818
scalar OsgEarthNet.uav[54] utilizationCountManeuversMaintenance 104
scalar OsgEarthNet.uav[54] utilizationCountChargeState 52
scalar OsgEarthNet.uav[54] utilizationCountOverdrawnAfterMission 1
scalar OsgEarthNet.uav[54] utilizationCountIdleState 50
scalar OsgEarthNet.uav[54] utilizationFail 0
scalar OsgEarthNet.uav[54] simulationTime 259200
scalar OsgEarthNet.uav[55] utilizationSecMission 24208.932994842
scalar OsgEarthNet.uav[55] utilizationSecMaintenance 22401.518976979
scalar OsgEarthNet.uav[55] utilizationSecCharge 165709.91594751
scalar OsgEarthNet.uav[55] utilizationSecIdle 46879.631080665
scalar OsgEarthNet.uav[55] utilizationEnergyMission 117137.04815292
scalar OsgEarthNet.uav[55] utilizationEnergyMaintenance 105109.37169266
scalar OsgEarthNet.uav[55] utilizationEnergyCharge 217812.36352539
scalar OsgEarthNet.uav[55] utilizationEnergyOverdrawMission 0
scalar OsgEarthNet.uav[55] utilizationEnergyOverdrawMaintenance 0
scalar OsgEarthNet.uav[55] utilizationCountMissions 50
scalar OsgEarthNet.uav[55] utilizationCountManeuversMission 685
scalar OsgEarthNet.uav[55] utilizationCountManeuversMaintenance 100
scalar OsgEarthNet.uav[55] utilizationCountChargeState 50
scalar OsgEarthNet.uav[55] utilizationCountOverdrawnAfterMission 0
scalar OsgEarthNet.uav[55] utilizationCountIdleState 49
scalar OsgEarthNet.uav[55] utilizationFail 0
scalar OsgEarthNet.uav[55] simulationTime 259200
scalar OsgEarthNet.uav[56] utilizationSecMission 19506.665255614
scalar OsgEarthNet.uav[56] utilizationSecMaintenance 20121.331797687
scalar OsgEarthNet.uav[56] utilizationSecCharge 141212.05767753
scalar OsgEarthNet.uav[56] utilizationSecIdle 78359.944269172
scalar OsgEarthNet.uav[56] utilizationEnergyMission 94163.529613495
scalar OsgEarthNet.uav[56] utilizationEnergyMaintenance 93564.712345123
scalar OsgEarthNet.uav[56] utilizationEnergyCharge 186917.07299805
scalar OsgEarthNet.uav[56] utilizationEnergyOverdrawMission 0
scalar OsgEarthNet.uav[56] utilizationEnergyOverdrawMaintenance 390.47451782227
scalar OsgEarthNet.uav[56] utilizationCountMissions 43
scalar OsgEarthNet.uav[56] utilizationCountManeuversMission 634
scalar OsgEarthNet.uav[56] utilizationCountManeuversMaintenance 86
scalar OsgEarthNet.uav[56] utilizationCountChargeState 43
scalar OsgEarthNet.uav[56] utilizationCountOverdrawnAfterMission 1
scalar OsgEarthNet.uav[56] utilizationCountIdleState 38
scalar OsgEarthNet.uav[56] utilizationFail 0
scalar OsgEarthNet.uav[56] simulationTime 259200
scalar OsgEarthNet.uav[57] utilizationSecMission 27311.418261799
scalar OsgEarthNet.uav[57] utilizationSecMaintenance 23977.551284668
scalar OsgEarthNet.uav[57] utilizationSecCharge 183733.71436732
scalar OsgEarthNet.uav[57] utilizationSecIdle 24177.315086215
scalar OsgEarthNet.uav[57] utilizationEnergyMission 132572.88373184
scalar OsgEarthNet.uav[57] utilizationEnergyMaintenance 110778.45262527
scalar OsgEarthNet.uav[57] utilizationEnergyCharge 243675.92041016
scalar OsgEarthNet.uav[57] utilizationEnergyOverdrawMission 0
scalar OsgEarthNet.uav[57] utilizationEnergyOverdrawMaintenance 83.017776489258
scalar OsgEarthNet.uav[57] utilizationCountMissions 56
scalar OsgEarthNet.uav[57] utilizationCountManeuversMission 874
scalar OsgEarthNet.uav[57] utilizationCountManeuversMaintenance 112
scalar OsgEarthNet.uav[57] utilizationCountChargeState 56
scalar OsgEarthNet.uav[57] utilizationCountOverdrawnAfterMission 1
scalar OsgEarthNet.uav[57] utilizationCountIdleState 50
scalar OsgEarthNet.uav[57] utilizationFail 0
scalar OsgEarthNet.uav[57] simulationTime 259200
scalar OsgEarthNet.uav[58] utilizationSecMission 22122.477698912
scalar OsgEarthNet.uav[58] utilizationSecMaintenance 18258.535535701
scalar OsgEarthNet.uav[58] utilizationSecCharge 145156.98176539
scalar OsgEarthNet.uav[58] utilizationSecIdle 73662.004
scalar OsgEarthNet.uav[58] utilizationEnergyMission 107066.36317825
scalar OsgEarthNet.uav[58] utilizationEnergyMaintenance 85661.370117187
scalar OsgEarthNet.uav[58] utilizationEnergyCharge 191905.04443359
scalar OsgEarthNet.uav[58] utilizationEnergyOverdrawMission 0
scalar OsgEarthNet.uav[58] utilizationEnergyOverdrawMaintenance 0
scalar OsgEarthNet.uav[58] utilizationCountMissions 44
scalar OsgEarthNet.uav[58] utilizationCountManeuversMission 659
scalar OsgEarthNet.uav[58] utilizationCountManeuversMaintenance 88
scalar OsgEarthNet.uav[58] utilizationCountChargeState 44
scalar OsgEarthNet.uav[58] utilizationCountOverdrawnAfterMission 0
scalar OsgEarthNet.uav[58] utilizationCountIdleState 39
scalar OsgEarthNet.uav[58] utilizationFail 0
scalar OsgEarthNet.uav[58] simulationTime 259200
scalar OsgEarthNet.uav[59] utilizationSecMission 21461.481255502
scalar OsgEarthNet.uav[59] utilizationSecMaintenance 23598.075367511
scalar OsgEarthNet.uav[59] utilizationSecCharge 162279.24579739
scalar OsgEarthNet.uav[59] utilizationSecIdle 51861.196579595
scalar OsgEarthNet.uav[59] utilizationEnergyMission 105211.97385788
scalar OsgEarthNet.uav[59] utilizationEnergyMaintenance 109163.01015472
scalar OsgEarthNet.uav[59] utilizationEnergyCharge 212790.38452148
scalar OsgEarthNet.uav[59] utilizationEnergyOverdrawMission 0
scalar OsgEarthNet.uav[59] utilizationEnergyOverdrawMaintenance 0
scalar OsgEarthNet.uav[59] utilizationCountMissions 49
scalar OsgEarthNet.uav[59] utilizationCountManeuversMission 703
scalar OsgEarthNet.uav[59] utilizationCountManeuversMaintenance 98
scalar OsgEarthNet.uav[59] utilizationCountChargeState 49
scalar OsgEarthNet.uav[59] utilizationCountOverdrawnAfterMission 0
scalar OsgEarthNet.uav[59] utilizationCountIdleState 43
scalar OsgEarthNet.uav[59] utilizationFail 0
scalar OsgEarthNet.uav[59] simulationTime 259200
scalar OsgEarthNet.uav[60] utilizationSecMission 26527.096138126
scalar OsgEarthNet.uav[60] utilizationSecMaintenance 21351.949375162
scalar OsgEarthNet.uav[60] utilizationSecCharge 172760
scalar OsgEarthNet.uav[60] utilizationSecIdle 38560.953486713
scalar OsgEarthNet.uav[60] utilizationEnergyMission 129152.1605072
scalar OsgEarthNet.uav[60] utilizationEnergyMaintenance 98565.011222839
scalar OsgEarthNet.uav[60] utilizationEnergyCharge 226325.54736328
scalar OsgEarthNet.uav[60] utilizationEnergyOverdrawMission 0
scalar OsgEarthNet.uav[60] utilizationEnergyOverdrawMaintenance 0
scalar OsgEarthNet.uav[60] utilizationCountMissions 52
scalar OsgEarthNet.uav[60] utilizationCountManeuversMission 805
scalar OsgEarthNet.uav[60] utilizationCountManeuversMaintenance 104
scalar OsgEarthNet.uav[60] utilizationCountChargeState 52
scalar OsgEarthNet.uav[60] utilizationCountOverdrawnAfterMission 0
scalar OsgEarthNet.uav[60] utilizationCountIdleState 50
scalar OsgEarthNet.uav[60] utilizationFail 0
scalar OsgEarthNet.uav[60] simulationTime 259200
scalar OsgEarthNet.uav[61] utilizationSecMission 24648.641623367
scalar OsgEarthNet.uav[61] utilizationSecMaintenance 22199.224908431
scalar OsgEarthNet.uav[61] utilizationSecCharge 169080
scalar OsgEarthNet.uav[61] utilizationSecIdle 43272.132468202
scalar OsgEarthNet.uav[61] utilizationEnergyMission 119794.73360825
scalar OsgEarthNet.uav[61] utilizationEnergyMaintenance 103844.41955948
scalar OsgEarthNet.uav[61] utilizationEnergyCharge 224037.69140625
scalar OsgEarthNet.uav[61] utilizationEnergyOverdrawMission 0
scalar OsgEarthNet.uav[61] utilizationEnergyOverdrawMaintenance 0
scalar OsgEarthNet.uav[61] utilizationCountMissions 50
scalar OsgEarthNet.uav[61] utilizationCountManeuversMission 778
scalar OsgEarthNet.uav[61] utilizationCountManeuversMaintenance 100
scalar OsgEarthNet.uav[61] utilizationCountChargeState 50
scalar OsgEarthNet.uav[61] utilizationCountOverdrawnAfterMission 0
scalar OsgEarthNet.uav[61] utilizationCountIdleState 42
scalar OsgEarthNet.uav[61] utilizationFail 0
scalar OsgEarthNet.uav[61] simulationTime 259200
scalar OsgEarthNet.uav[62] utilizationSecMission 24320.853499638
scalar OsgEarthNet.uav[62] utilizationSecMaintenance 24203.801166709
scalar OsgEarthNet.uav[62] utilizationSecCharge 173100
scalar OsgEarthNet.uav[62] utilizationSecIdle 37575.344333654
scalar OsgEarthNet.uav[62] utilizationEnergyMission 114677.42497253
scalar OsgEarthNet.uav[62] utilizationEnergyMaintenance 112157.10520172
scalar OsgEarthNet.uav[62] utilizationEnergyCharge 228485.33227539
scalar OsgEarthNet.uav[62] utilizationEnergyOverdrawMission 0
scalar OsgEarthNet.uav[62] utilizationEnergyOverdrawMaintenance 0
scalar OsgEarthNet.uav[62] utilizationCountMissions 52
scalar OsgEarthNet.uav[62] utilizationCountManeuversMission 636
scalar OsgEarthNet.uav[62] utilizationCountManeuversMaintenance 104
scalar OsgEarthNet.uav[62] utilizationCountChargeState 52
scalar OsgEarthNet.uav[62] utilizationCountOverdrawnAfterMission 0
scalar OsgEarthNet.uav[62] utilizationCountIdleState 42
scalar OsgEarthNet.uav[62] utilizationFail 0
scalar OsgEarthNet.uav[62] simulationTime 259200
scalar OsgEarthNet.uav[63] utilizationSecMission 23465.608246323
scalar OsgEarthNet.uav[63] utilizationSecMaintenance 25351.506985623
scalar OsgEarthNet.uav[63] utilizationSecCharge 174800
scalar OsgEarthNet.uav[63] utilizationSecIdle 35582.883768055
scalar OsgEarthNet.uav[63] utilizationEnergyMission 112051.03787613
scalar OsgEarthNet.uav[63] utilizationEnergyMaintenance 117942.72504807
scalar OsgEarthNet.uav[63] utilizationEnergyCharge 230902.42480469
scalar OsgEarthNet.uav[63] utilizationEnergyOverdrawMission 0
scalar OsgEarthNet.uav[63] utilizationEnergyOverdrawMaintenance 512.15710449219
scalar OsgEarthNet.uav[63] utilizationCountMissions 53
scalar OsgEarthNet.uav[63] utilizationCountManeuversMission 657
scalar OsgEarthNet.uav[63] utilizationCountManeuversMaintenance 106
scalar OsgEarthNet.uav[63] utilizationCountChargeState 53
scalar OsgEarthNet.uav[63] utilizationCountOverdrawnAfterMission 1
scalar OsgEarthNet.uav[63] utilizationCountIdleState 44
scalar OsgEarthNet.uav[63] utilizationFail 0
scalar OsgEarthNet.uav[63] simulationTime 259200
scalar OsgEarthNet.uav[64] utilizationSecMission 25628.076392613
scalar OsgEarthNet.uav[64] utilizationSecMaintenance 22169.520395337
scalar OsgEarthNet.uav[64] utilizationSecCharge 172080
scalar OsgEarthNet.uav[64] utilizationSecIdle 39322.40221205
scalar OsgEarthNet.uav[64] utilizationEnergyMission 125265.46131897
scalar OsgEarthNet.uav[64] utilizationEnergyMaintenance 103072.99481583
scalar OsgEarthNet.uav[64] utilizationEnergyCharge 227228.71166992
scalar OsgEarthNet.uav[64] utilizationEnergyOverdrawMission 0
scalar OsgEarthNet.uav[64] utilizationEnergyOverdrawMaintenance 0
scalar OsgEarthNet.uav[64] utilizationCountMissions 52
scalar OsgEarthNet.uav[64] utilizationCountManeuversMission 730
scalar OsgEarthNet.uav[64] utilizationCountManeuversMaintenance 104
scalar OsgEarthNet.uav[64] utilizationCountChargeState 52
scalar OsgEarthNet.uav[64] utilizationCountOverdrawnAfterMission 0
scalar OsgEarthNet.uav[64] utilizationCountIdleState 45
scalar OsgEarthNet.uav[64] utilizationFail 0
scalar OsgEarthNet.uav[64] simulationTime 259200
scalar OsgEarthNet.uav[65] utilizationSecMission 26259.963833136
scalar OsgEarthNet.uav[65] utilizationSecMaintenance 25088.035166864
scalar OsgEarthNet.uav[65] utilizationSecCharge 183530
scalar OsgEarthNet.uav[65] utilizationSecIdle 24322
scalar OsgEarthNet.uav[65] utilizationEnergyMission 126747.7494812
scalar OsgEarthNet.uav[65] utilizationEnergyMaintenance 116617.67095587
scalar OsgEarthNet.uav[65] utilizationEnergyCharge 242697.11425781
scalar OsgEarthNet.uav[65] utilizationEnergyOverdrawMission 0
[...]
scalar OsgEarthNet.uav[81] utilizationCountMissions 60
scalar OsgEarthNet.uav[81] utilizationCountManeuversMission 851
scalar OsgEarthNet.uav[81] utilizationCountManeuversMaintenance 120
scalar OsgEarthNet.uav[81] utilizationCountChargeState 60
scalar OsgEarthNet.uav[81] utilizationCountOverdrawnAfterMission 0
scalar OsgEarthNet.uav[81] utilizationCountIdleState 31
scalar OsgEarthNet.uav[81] utilizationFail 0
scalar OsgEarthNet.uav[81] simulationTime 259200
scalar OsgEarthNet.uav[82] utilizationSecMission 27103.027569894
scalar OsgEarthNet.uav[82] utilizationSecMaintenance 27574.965430106
scalar OsgEarthNet.uav[82] utilizationSecCharge 193320
scalar OsgEarthNet.uav[82] utilizationSecIdle 11202.006
scalar OsgEarthNet.uav[82] utilizationEnergyMission 131424.93183899
scalar OsgEarthNet.uav[82] utilizationEnergyMaintenance 127157.35424386
scalar OsgEarthNet.uav[82] utilizationEnergyCharge 259181.85668945
scalar OsgEarthNet.uav[82] utilizationEnergyOverdrawMission 0
scalar OsgEarthNet.uav[82] utilizationEnergyOverdrawMaintenance 0
scalar OsgEarthNet.uav[82] utilizationCountMissions 60
scalar OsgEarthNet.uav[82] utilizationCountManeuversMission 865
scalar OsgEarthNet.uav[82] utilizationCountManeuversMaintenance 121
scalar OsgEarthNet.uav[82] utilizationCountChargeState 60
scalar OsgEarthNet.uav[82] utilizationCountOverdrawnAfterMission 0
scalar OsgEarthNet.uav[82] utilizationCountIdleState 31
scalar OsgEarthNet.uav[82] utilizationFail 0
scalar OsgEarthNet.uav[82] simulationTime 259200
scalar OsgEarthNet.uav[83] utilizationSecMission 27977.518731129
scalar OsgEarthNet.uav[83] utilizationSecMaintenance 26812.499817684
scalar OsgEarthNet.uav[83] utilizationSecCharge 191797.42424449
scalar OsgEarthNet.uav[83] utilizationSecIdle 12612.556206698
scalar OsgEarthNet.uav[83] utilizationEnergyMission 134907.03936386
scalar OsgEarthNet.uav[83] utilizationEnergyMaintenance 124865.42842865
scalar OsgEarthNet.uav[83] utilizationEnergyCharge 257223.39807129
scalar OsgEarthNet.uav[83] utilizationEnergyOverdrawMission 0
scalar OsgEarthNet.uav[83] utilizationEnergyOverdrawMaintenance 0
scalar OsgEarthNet.uav[83] utilizationCountMissions 60
scalar OsgEarthNet.uav[83] utilizationCountManeuversMission 848
scalar OsgEarthNet.uav[83] utilizationCountManeuversMaintenance 120
scalar OsgEarthNet.uav[83] utilizationCountChargeState 60
scalar OsgEarthNet.uav[83] utilizationCountOverdrawnAfterMission 0
scalar OsgEarthNet.uav[83] utilizationCountIdleState 34
scalar OsgEarthNet.uav[83] utilizationFail 0
scalar OsgEarthNet.uav[83] simulationTime 259200
scalar OsgEarthNet.uav[84] utilizationSecMission 27802.9423087
scalar OsgEarthNet.uav[84] utilizationSecMaintenance 27135.606104401
scalar OsgEarthNet.uav[84] utilizationSecCharge 192460.39478294
scalar OsgEarthNet.uav[84] utilizationSecIdle 11801.055803961
scalar OsgEarthNet.uav[84] utilizationEnergyMission 135739.11284256
scalar OsgEarthNet.uav[84] utilizationEnergyMaintenance 126662.11833954
scalar OsgEarthNet.uav[84] utilizationEnergyCharge 259376.31445312
scalar OsgEarthNet.uav[84] utilizationEnergyOverdrawMission 0
scalar OsgEarthNet.uav[84] utilizationEnergyOverdrawMaintenance 0
scalar OsgEarthNet.uav[84] utilizationCountMissions 61
scalar OsgEarthNet.uav[84] utilizationCountManeuversMission 895
scalar OsgEarthNet.uav[84] utilizationCountManeuversMaintenance 122
scalar OsgEarthNet.uav[84] utilizationCountChargeState 61
scalar OsgEarthNet.uav[84] utilizationCountOverdrawnAfterMission 0
scalar OsgEarthNet.uav[84] utilizationCountIdleState 25
scalar OsgEarthNet.uav[84] utilizationFail 0
scalar OsgEarthNet.uav[84] simulationTime 259200
scalar OsgEarthNet.uav[85] utilizationSecMission 27151.15076307
scalar OsgEarthNet.uav[85] utilizationSecMaintenance 28928.228433621
scalar OsgEarthNet.uav[85] utilizationSecCharge 197288.61980331
scalar OsgEarthNet.uav[85] utilizationSecIdle 5832
scalar OsgEarthNet.uav[85] utilizationEnergyMission 133674.57168579
scalar OsgEarthNet.uav[85] utilizationEnergyMaintenance 133124.24272156
scalar OsgEarthNet.uav[85] utilizationEnergyCharge 265546.18457031
scalar OsgEarthNet.uav[85] utilizationEnergyOverdrawMission 0
scalar OsgEarthNet.uav[85] utilizationEnergyOverdrawMaintenance 0
scalar OsgEarthNet.uav[85] utilizationCountMissions 62
scalar OsgEarthNet.uav[85] utilizationCountManeuversMission 916
scalar OsgEarthNet.uav[85] utilizationCountManeuversMaintenance 124
scalar OsgEarthNet.uav[85] utilizationCountChargeState 62
scalar OsgEarthNet.uav[85] utilizationCountOverdrawnAfterMission 0
scalar OsgEarthNet.uav[85] utilizationCountIdleState 28
scalar OsgEarthNet.uav[85] utilizationFail 0
scalar OsgEarthNet.uav[85] simulationTime 259200
scalar OsgEarthNet.uav[86] utilizationSecMission 28139.844559353
scalar OsgEarthNet.uav[86] utilizationSecMaintenance 27777.00385543
scalar OsgEarthNet.uav[86] utilizationSecCharge 193151.13758522
scalar OsgEarthNet.uav[86] utilizationSecIdle 10132.013
scalar OsgEarthNet.uav[86] utilizationEnergyMission 135785.96011353
scalar OsgEarthNet.uav[86] utilizationEnergyMaintenance 128963.26973724
scalar OsgEarthNet.uav[86] utilizationEnergyCharge 261930.11865234
scalar OsgEarthNet.uav[86] utilizationEnergyOverdrawMission 0
scalar OsgEarthNet.uav[86] utilizationEnergyOverdrawMaintenance 0
scalar OsgEarthNet.uav[86] utilizationCountMissions 61
scalar OsgEarthNet.uav[86] utilizationCountManeuversMission 903
scalar OsgEarthNet.uav[86] utilizationCountManeuversMaintenance 122
scalar OsgEarthNet.uav[86] utilizationCountChargeState 61
scalar OsgEarthNet.uav[86] utilizationCountOverdrawnAfterMission 0
scalar OsgEarthNet.uav[86] utilizationCountIdleState 20
scalar OsgEarthNet.uav[86] utilizationFail 0
scalar OsgEarthNet.uav[86] simulationTime 259200
scalar OsgEarthNet.uav[87] utilizationSecMission 27237.266794141
scalar OsgEarthNet.uav[87] utilizationSecMaintenance 28922.032936747
scalar OsgEarthNet.uav[87] utilizationSecCharge 194568.69226911
scalar OsgEarthNet.uav[87] utilizationSecIdle 8472.007
scalar OsgEarthNet.uav[87] utilizationEnergyMission 131867.01569748
scalar OsgEarthNet.uav[87] utilizationEnergyMaintenance 134207.81484985
scalar OsgEarthNet.uav[87] utilizationEnergyCharge 264342.43847656
scalar OsgEarthNet.uav[87] utilizationEnergyOverdrawMission 0
scalar OsgEarthNet.uav[87] utilizationEnergyOverdrawMaintenance 0
scalar OsgEarthNet.uav[87] utilizationCountMissions 61
scalar OsgEarthNet.uav[87] utilizationCountManeuversMission 874
scalar OsgEarthNet.uav[87] utilizationCountManeuversMaintenance 122
scalar OsgEarthNet.uav[87] utilizationCountChargeState 61
scalar OsgEarthNet.uav[87] utilizationCountOverdrawnAfterMission 0
scalar OsgEarthNet.uav[87] utilizationCountIdleState 25
scalar OsgEarthNet.uav[87] utilizationFail 0
scalar OsgEarthNet.uav[87] simulationTime 259200
scalar OsgEarthNet.uav[88] utilizationSecMission 28035.817376327
scalar OsgEarthNet.uav[88] utilizationSecMaintenance 28427.484793972
scalar OsgEarthNet.uav[88] utilizationSecCharge 196387.84866991
scalar OsgEarthNet.uav[88] utilizationSecIdle 6348.8481597938
scalar OsgEarthNet.uav[88] utilizationEnergyMission 137262.98132706
scalar OsgEarthNet.uav[88] utilizationEnergyMaintenance 131676.52359772
scalar OsgEarthNet.uav[88] utilizationEnergyCharge 267835.34521484
scalar OsgEarthNet.uav[88] utilizationEnergyOverdrawMission 0
scalar OsgEarthNet.uav[88] utilizationEnergyOverdrawMaintenance 0
scalar OsgEarthNet.uav[88] utilizationCountMissions 61
scalar OsgEarthNet.uav[88] utilizationCountManeuversMission 830
scalar OsgEarthNet.uav[88] utilizationCountManeuversMaintenance 122
scalar OsgEarthNet.uav[88] utilizationCountChargeState 61
scalar OsgEarthNet.uav[88] utilizationCountOverdrawnAfterMission 0
scalar OsgEarthNet.uav[88] utilizationCountIdleState 18
scalar OsgEarthNet.uav[88] utilizationFail 0
scalar OsgEarthNet.uav[88] simulationTime 259200
scalar OsgEarthNet.uav[89] utilizationSecMission 27292.836741923
scalar OsgEarthNet.uav[89] utilizationSecMaintenance 29852.076281989
scalar OsgEarthNet.uav[89] utilizationSecCharge 195848.46729795
scalar OsgEarthNet.uav[89] utilizationSecIdle 6206.6186781405
scalar OsgEarthNet.uav[89] utilizationEnergyMission 131170.7886467
scalar OsgEarthNet.uav[89] utilizationEnergyMaintenance 139098.48121262
scalar OsgEarthNet.uav[89] utilizationEnergyCharge 265780.76171875
scalar OsgEarthNet.uav[89] utilizationEnergyOverdrawMission 0
scalar OsgEarthNet.uav[89] utilizationEnergyOverdrawMaintenance 0
scalar OsgEarthNet.uav[89] utilizationCountMissions 61
scalar OsgEarthNet.uav[89] utilizationCountManeuversMission 756
scalar OsgEarthNet.uav[89] utilizationCountManeuversMaintenance 122
scalar OsgEarthNet.uav[89] utilizationCountChargeState 61
scalar OsgEarthNet.uav[89] utilizationCountOverdrawnAfterMission 0
scalar OsgEarthNet.uav[89] utilizationCountIdleState 22
scalar OsgEarthNet.uav[89] utilizationFail 0
scalar OsgEarthNet.uav[89] simulationTime 259200
scalar OsgEarthNet.uav[90] utilizationSecMission 27776.627891062
scalar OsgEarthNet.uav[90] utilizationSecMaintenance 27016.981270905
scalar OsgEarthNet.uav[90] utilizationSecCharge 193260
scalar OsgEarthNet.uav[90] utilizationSecIdle 11146.389838033
scalar OsgEarthNet.uav[90] utilizationEnergyMission 135161.15605474
scalar OsgEarthNet.uav[90] utilizationEnergyMaintenance 125385.82920837
scalar OsgEarthNet.uav[90] utilizationEnergyCharge 259682.46850586
scalar OsgEarthNet.uav[90] utilizationEnergyOverdrawMission 0
scalar OsgEarthNet.uav[90] utilizationEnergyOverdrawMaintenance 0
scalar OsgEarthNet.uav[90] utilizationCountMissions 60
scalar OsgEarthNet.uav[90] utilizationCountManeuversMission 908
scalar OsgEarthNet.uav[90] utilizationCountManeuversMaintenance 121
scalar OsgEarthNet.uav[90] utilizationCountChargeState 60
scalar OsgEarthNet.uav[90] utilizationCountOverdrawnAfterMission 0
scalar OsgEarthNet.uav[90] utilizationCountIdleState 28
scalar OsgEarthNet.uav[90] utilizationFail 0
scalar OsgEarthNet.uav[90] simulationTime 259200
scalar OsgEarthNet.uav[91] utilizationSecMission 28785.059582221
scalar OsgEarthNet.uav[91] utilizationSecMaintenance 27549.972149512
scalar OsgEarthNet.uav[91] utilizationSecCharge 194820
scalar OsgEarthNet.uav[91] utilizationSecIdle 8044.9672682672
scalar OsgEarthNet.uav[91] utilizationEnergyMission 138981.71993871
scalar OsgEarthNet.uav[91] utilizationEnergyMaintenance 126057.16992187
scalar OsgEarthNet.uav[91] utilizationEnergyCharge 261866.09521484
scalar OsgEarthNet.uav[91] utilizationEnergyOverdrawMission 0
scalar OsgEarthNet.uav[91] utilizationEnergyOverdrawMaintenance 0
scalar OsgEarthNet.uav[91] utilizationCountMissions 62
scalar OsgEarthNet.uav[91] utilizationCountManeuversMission 840
scalar OsgEarthNet.uav[91] utilizationCountManeuversMaintenance 125
scalar OsgEarthNet.uav[91] utilizationCountChargeState 62
scalar OsgEarthNet.uav[91] utilizationCountOverdrawnAfterMission 0
scalar OsgEarthNet.uav[91] utilizationCountIdleState 20
scalar OsgEarthNet.uav[91] utilizationFail 0
scalar OsgEarthNet.uav[91] simulationTime 259200
scalar OsgEarthNet.uav[92] utilizationSecMission 27948.676443847
scalar OsgEarthNet.uav[92] utilizationSecMaintenance 28937.33451193
scalar OsgEarthNet.uav[92] utilizationSecCharge 197021.98604422
scalar OsgEarthNet.uav[92] utilizationSecIdle 5292.002
scalar OsgEarthNet.uav[92] utilizationEnergyMission 135228.25736237
scalar OsgEarthNet.uav[92] utilizationEnergyMaintenance 133507.55923462
scalar OsgEarthNet.uav[92] utilizationEnergyCharge 267407.03747559
scalar OsgEarthNet.uav[92] utilizationEnergyOverdrawMission 0
scalar OsgEarthNet.uav[92] utilizationEnergyOverdrawMaintenance 251.02894592285
scalar OsgEarthNet.uav[92] utilizationCountMissions 62
scalar OsgEarthNet.uav[92] utilizationCountManeuversMission 853
scalar OsgEarthNet.uav[92] utilizationCountManeuversMaintenance 124
scalar OsgEarthNet.uav[92] utilizationCountChargeState 62
scalar OsgEarthNet.uav[92] utilizationCountOverdrawnAfterMission 1
scalar OsgEarthNet.uav[92] utilizationCountIdleState 18
scalar OsgEarthNet.uav[92] utilizationFail 0
scalar OsgEarthNet.uav[92] simulationTime 259200
scalar OsgEarthNet.uav[93] utilizationSecMission 26488.013387606
scalar OsgEarthNet.uav[93] utilizationSecMaintenance 29696.714025737
scalar OsgEarthNet.uav[93] utilizationSecCharge 194690
scalar OsgEarthNet.uav[93] utilizationSecIdle 8325.271586657
scalar OsgEarthNet.uav[93] utilizationEnergyMission 128684.57937314
scalar OsgEarthNet.uav[93] utilizationEnergyMaintenance 136655.0748291
scalar OsgEarthNet.uav[93] utilizationEnergyCharge 264588.78710938
scalar OsgEarthNet.uav[93] utilizationEnergyOverdrawMission 0
scalar OsgEarthNet.uav[93] utilizationEnergyOverdrawMaintenance 0
scalar OsgEarthNet.uav[93] utilizationCountMissions 61
scalar OsgEarthNet.uav[93] utilizationCountManeuversMission 846
scalar OsgEarthNet.uav[93] utilizationCountManeuversMaintenance 123
scalar OsgEarthNet.uav[93] utilizationCountChargeState 61
scalar OsgEarthNet.uav[93] utilizationCountOverdrawnAfterMission 0
scalar OsgEarthNet.uav[93] utilizationCountIdleState 20
scalar OsgEarthNet.uav[93] utilizationFail 0
scalar OsgEarthNet.uav[93] simulationTime 259200
scalar OsgEarthNet.uav[94] utilizationSecMission 28808.239456723
scalar OsgEarthNet.uav[94] utilizationSecMaintenance 27770.989011547
scalar OsgEarthNet.uav[94] utilizationSecCharge 196698.76753173
scalar OsgEarthNet.uav[94] utilizationSecIdle 5922.003
scalar OsgEarthNet.uav[94] utilizationEnergyMission 138763.95078278
scalar OsgEarthNet.uav[94] utilizationEnergyMaintenance 126549.49825287
scalar OsgEarthNet.uav[94] utilizationEnergyCharge 266593.296875
scalar OsgEarthNet.uav[94] utilizationEnergyOverdrawMission 0
scalar OsgEarthNet.uav[94] utilizationEnergyOverdrawMaintenance 0
scalar OsgEarthNet.uav[94] utilizationCountMissions 62
scalar OsgEarthNet.uav[94] utilizationCountManeuversMission 947
scalar OsgEarthNet.uav[94] utilizationCountManeuversMaintenance 124
scalar OsgEarthNet.uav[94] utilizationCountChargeState 62
scalar OsgEarthNet.uav[94] utilizationCountOverdrawnAfterMission 0
scalar OsgEarthNet.uav[94] utilizationCountIdleState 21
scalar OsgEarthNet.uav[94] utilizationFail 0
scalar OsgEarthNet.uav[94] simulationTime 259200
scalar OsgEarthNet.uav[95] utilizationSecMission 26977.377572129
scalar OsgEarthNet.uav[95] utilizationSecMaintenance 29609.233067298
scalar OsgEarthNet.uav[95] utilizationSecCharge 197781.38436057
scalar OsgEarthNet.uav[95] utilizationSecIdle 4832.004
scalar OsgEarthNet.uav[95] utilizationEnergyMission 132253.06057358
scalar OsgEarthNet.uav[95] utilizationEnergyMaintenance 137197.00378799
scalar OsgEarthNet.uav[95] utilizationEnergyCharge 268647.04931641
scalar OsgEarthNet.uav[95] utilizationEnergyOverdrawMission 0
scalar OsgEarthNet.uav[95] utilizationEnergyOverdrawMaintenance 0
scalar OsgEarthNet.uav[95] utilizationCountMissions 62
scalar OsgEarthNet.uav[95] utilizationCountManeuversMission 930
scalar OsgEarthNet.uav[95] utilizationCountManeuversMaintenance 124
scalar OsgEarthNet.uav[95] utilizationCountChargeState 62
scalar OsgEarthNet.uav[95] utilizationCountOverdrawnAfterMission 0
scalar OsgEarthNet.uav[95] utilizationCountIdleState 18
scalar OsgEarthNet.uav[95] utilizationFail 0
scalar OsgEarthNet.uav[95] simulationTime 259200
scalar OsgEarthNet.uav[96] utilizationSecMission 28848.60743711
scalar OsgEarthNet.uav[96] utilizationSecMaintenance 26150.838111696
scalar OsgEarthNet.uav[96] utilizationSecCharge 192361.71248576
scalar OsgEarthNet.uav[96] utilizationSecIdle 11838.840965435
scalar OsgEarthNet.uav[96] utilizationEnergyMission 139716.04168701
scalar OsgEarthNet.uav[96] utilizationEnergyMaintenance 121344.11429596
scalar OsgEarthNet.uav[96] utilizationEnergyCharge 259911.70092773
scalar OsgEarthNet.uav[96] utilizationEnergyOverdrawMission 0
scalar OsgEarthNet.uav[96] utilizationEnergyOverdrawMaintenance 0
scalar OsgEarthNet.uav[96] utilizationCountMissions 60
scalar OsgEarthNet.uav[96] utilizationCountManeuversMission 907
scalar OsgEarthNet.uav[96] utilizationCountManeuversMaintenance 120
scalar OsgEarthNet.uav[96] utilizationCountChargeState 60
scalar OsgEarthNet.uav[96] utilizationCountOverdrawnAfterMission 0
scalar OsgEarthNet.uav[96] utilizationCountIdleState 27
scalar OsgEarthNet.uav[96] utilizationFail 0
scalar OsgEarthNet.uav[96] simulationTime 259200
scalar OsgEarthNet.uav[97] utilizationSecMission 29293.60543437
scalar OsgEarthNet.uav[97] utilizationSecMaintenance 27078.58241176
scalar OsgEarthNet.uav[97] utilizationSecCharge 197669.45854661
scalar OsgEarthNet.uav[97] utilizationSecIdle 5158.3526072632
scalar OsgEarthNet.uav[97] utilizationEnergyMission 143127.9720993
scalar OsgEarthNet.uav[97] utilizationEnergyMaintenance 126881.51045227
scalar OsgEarthNet.uav[97] utilizationEnergyCharge 268841.53564453
scalar OsgEarthNet.uav[97] utilizationEnergyOverdrawMission 0
scalar OsgEarthNet.uav[97] utilizationEnergyOverdrawMaintenance 0
scalar OsgEarthNet.uav[97] utilizationCountMissions 62
scalar OsgEarthNet.uav[97] utilizationCountManeuversMission 931
scalar OsgEarthNet.uav[97] utilizationCountManeuversMaintenance 124
scalar OsgEarthNet.uav[97] utilizationCountChargeState 62
scalar OsgEarthNet.uav[97] utilizationCountOverdrawnAfterMission 0
scalar OsgEarthNet.uav[97] utilizationCountIdleState 23
scalar OsgEarthNet.uav[97] utilizationFail 0
scalar OsgEarthNet.uav[97] simulationTime 259200
scalar OsgEarthNet.uav[98] utilizationSecMission 29668.073186583
scalar OsgEarthNet.uav[98] utilizationSecMaintenance 27568.766133637
scalar OsgEarthNet.uav[98] utilizationSecCharge 198211.15967978
scalar OsgEarthNet.uav[98] utilizationSecIdle 3752
scalar OsgEarthNet.uav[98] utilizationEnergyMission 144994.86643646
scalar OsgEarthNet.uav[98] utilizationEnergyMaintenance 127606.52793503
scalar OsgEarthNet.uav[98] utilizationEnergyCharge 267147.76306152
scalar OsgEarthNet.uav[98] utilizationEnergyOverdrawMission 0
scalar OsgEarthNet.uav[98] utilizationEnergyOverdrawMaintenance 0
scalar OsgEarthNet.uav[98] utilizationCountMissions 63
scalar OsgEarthNet.uav[98] utilizationCountManeuversMission 983
scalar OsgEarthNet.uav[98] utilizationCountManeuversMaintenance 125
scalar OsgEarthNet.uav[98] utilizationCountChargeState 63
scalar OsgEarthNet.uav[98] utilizationCountOverdrawnAfterMission 0
scalar OsgEarthNet.uav[98] utilizationCountIdleState 20
scalar OsgEarthNet.uav[98] utilizationFail 0
scalar OsgEarthNet.uav[98] simulationTime 259200
scalar OsgEarthNet.uav[99] utilizationSecMission 26633.000155199
scalar OsgEarthNet.uav[99] utilizationSecMaintenance 29652.898228154
scalar OsgEarthNet.uav[99] utilizationSecCharge 195783.14736098
scalar OsgEarthNet.uav[99] utilizationSecIdle 7130.9532556647
scalar OsgEarthNet.uav[99] utilizationEnergyMission 129254.16442108
scalar OsgEarthNet.uav[99] utilizationEnergyMaintenance 138094.26331329
scalar OsgEarthNet.uav[99] utilizationEnergyCharge 267426.00927734
scalar OsgEarthNet.uav[99] utilizationEnergyOverdrawMission 0
scalar OsgEarthNet.uav[99] utilizationEnergyOverdrawMaintenance 68.94457244873
scalar OsgEarthNet.uav[99] utilizationCountMissions 61
scalar OsgEarthNet.uav[99] utilizationCountManeuversMission 798
scalar OsgEarthNet.uav[99] utilizationCountManeuversMaintenance 122
scalar OsgEarthNet.uav[99] utilizationCountChargeState 61
scalar OsgEarthNet.uav[99] utilizationCountOverdrawnAfterMission 1
scalar OsgEarthNet.uav[99] utilizationCountIdleState 18
scalar OsgEarthNet.uav[99] utilizationFail 0
scalar OsgEarthNet.uav[99] simulationTime 259200
scalar OsgEarthNet.cs[0] usedPower 5489711.3379504
scalar OsgEarthNet.cs[0] chargedPower 5489711.3379504
scalar OsgEarthNet.cs[0] chargedMobileNodes 962
scalar OsgEarthNet.cs[0] reservations 1284
scalar OsgEarthNet.cs[1] usedPower 5676746.8339007
scalar OsgEarthNet.cs[1] chargedPower 5676746.8339007
scalar OsgEarthNet.cs[1] chargedMobileNodes 956
scalar OsgEarthNet.cs[1] reservations 1288
scalar OsgEarthNet.cs[2] usedPower 9849300.0488144
scalar OsgEarthNet.cs[2] chargedPower 9849300.0488144
scalar OsgEarthNet.cs[2] chargedMobileNodes 1771
scalar OsgEarthNet.cs[2] reservations 2291

