version 2
run Szenario_Hotel_Gabelbach-77-20180708-00:15:26-6332
attr configname Szenario_Hotel_Gabelbach
attr datetime 20180708-00:15:26
attr experiment Szenario_Hotel_Gabelbach
attr inifile omnetpp.ini
attr iterationvars "$quant=0.975, $replM=0"
attr iterationvarsf quant=0.975,replM=0-
attr measurement "$quant=0.975, $replM=0"
attr network OsgEarthNet
attr processid 6332
attr repetition 5
attr replication #5
attr resultdir results
attr runnumber 77
attr seedset 77
itervar quant 0.975
itervar replM 0
param *.osgEarthScene.scene "\"Szenario_Hotel_Gabelbach.earth\""
param *.playgroundLatitude 50.6830269
param *.playgroundLongitude 10.8538055
param *.playgroundWidth 3500m
param *.playgroundHeight 3500m
param *.numCSs 3
param *.numUAVs 100
param *.cs[0].posX 3537m
param *.cs[0].posY 965m
param *.cs[0].posZ 538m
param *.cs[1].posX 312m
param *.cs[1].posY 1262m
param *.cs[1].posZ 539m
param *.cs[2].posX 2185m
param *.cs[2].posY 3026m
param *.cs[2].posZ 777m
param *.uav[*].predictionQuantile 0.975
param *.uav[*].replacementMethod 0
param *.*.timeStep 10s
param *.uav[*].commandPreviewCommandCount 20
param *.missionControl.missionFiles "\"missions\\\\Szenario_WB_Hotel_Gabelbach_Mission_Hotel.waypoints,missions\\\\Szenario_WB_Hotel_Gabelbach_Mission_Kickelhahn.waypoints,missions\\\\Szenario_WB_Hotel_Gabelbach_Mission_Ilmenau_Sportplatz.waypoints,missions\\\\Szenario_WB_Hotel_Gabelbach_Mission_Manebach_Mitte.waypoints,missions\\\\Szenario_WB_Hotel_Gabelbach_Mission_Manebach_Sued.waypoints,missions\\\\Szenario_WB_Hotel_Gabelbach_Hover_HoheSchlaufe.waypoints,missions\\\\Szenario_WB_Hotel_Gabelbach_Hover_Kickelhahn.waypoints,missions\\\\Szenario_WB_Hotel_Gabelbach_Hover_Gabelbachskopf.waypoints,missions\\\\Szenario_WB_Hotel_Gabelbach_Hover_Dachskopf.waypoints\""
param *.uav[0].startX 3537m
param *.uav[0].startY 965m
param *.uav[0].startZ 539m
param *.uav[1].startX 312m
param *.uav[1].startY 1262m
param *.uav[1].startZ 540m
param *.uav[2].startX 2185m
param *.uav[2].startY 3026m
param *.uav[2].startZ 778m
param *.uav[3].startX 3537m
param *.uav[3].startY 965m
param *.uav[3].startZ 539m
param *.uav[4].startX 312m
param *.uav[4].startY 1262m
param *.uav[4].startZ 540m
param *.uav[5].startX 2185m
param *.uav[5].startY 3026m
param *.uav[5].startZ 778m
param *.uav[6].startX 3537m
param *.uav[6].startY 965m
param *.uav[6].startZ 539m
param *.uav[7].startX 312m
param *.uav[7].startY 1262m
param *.uav[7].startZ 540m
param *.uav[8].startX 2185m
param *.uav[8].startY 3026m
param *.uav[8].startZ 778m
param *.uav[9].startX 3537m
param *.uav[9].startY 965m
param *.uav[9].startZ 539m
param *.uav[10].startX 3537m
param *.uav[10].startY 965m
param *.uav[10].startZ 539m
param *.uav[11].startX 312m
param *.uav[11].startY 1262m
param *.uav[11].startZ 540m
param *.uav[12].startX 2185m
param *.uav[12].startY 3026m
param *.uav[12].startZ 778m
param *.uav[13].startX 3537m
param *.uav[13].startY 965m
param *.uav[13].startZ 539m
param *.uav[14].startX 312m
param *.uav[14].startY 1262m
param *.uav[14].startZ 540m
param *.uav[15].startX 2185m
param *.uav[15].startY 3026m
param *.uav[15].startZ 778m
param *.uav[16].startX 3537m
param *.uav[16].startY 965m
param *.uav[16].startZ 539m
param *.uav[17].startX 312m
param *.uav[17].startY 1262m
param *.uav[17].startZ 540m
param *.uav[18].startX 2185m
param *.uav[18].startY 3026m
param *.uav[18].startZ 778m
param *.uav[19].startX 3537m
param *.uav[19].startY 965m
param *.uav[19].startZ 539m
param *.uav[20].startX 3537m
param *.uav[20].startY 965m
param *.uav[20].startZ 539m
param *.uav[21].startX 312m
param *.uav[21].startY 1262m
param *.uav[21].startZ 540m
param *.uav[22].startX 2185m
param *.uav[22].startY 3026m
param *.uav[22].startZ 778m
param *.uav[23].startX 3537m
param *.uav[23].startY 965m
param *.uav[23].startZ 539m
param *.uav[24].startX 312m
param *.uav[24].startY 1262m
param *.uav[24].startZ 540m
param *.uav[25].startX 2185m
param *.uav[25].startY 3026m
param *.uav[25].startZ 778m
param *.uav[26].startX 3537m
param *.uav[26].startY 965m
param *.uav[26].startZ 539m
param *.uav[27].startX 312m
param *.uav[27].startY 1262m
param *.uav[27].startZ 540m
param *.uav[28].startX 2185m
param *.uav[28].startY 3026m
param *.uav[28].startZ 778m
param *.uav[29].startX 3537m
param *.uav[29].startY 965m
param *.uav[29].startZ 539m
param *.uav[30].startX 3537m
param *.uav[30].startY 965m
param *.uav[30].startZ 539m
param *.uav[31].startX 312m
param *.uav[31].startY 1262m
param *.uav[31].startZ 540m
param *.uav[32].startX 2185m
param *.uav[32].startY 3026m
param *.uav[32].startZ 778m
param *.uav[33].startX 3537m
param *.uav[33].startY 965m
param *.uav[33].startZ 539m
param *.uav[34].startX 312m
param *.uav[34].startY 1262m
param *.uav[34].startZ 540m
param *.uav[35].startX 2185m
param *.uav[35].startY 3026m
param *.uav[35].startZ 778m
param *.uav[36].startX 3537m
param *.uav[36].startY 965m
param *.uav[36].startZ 539m
param *.uav[37].startX 312m
param *.uav[37].startY 1262m
param *.uav[37].startZ 540m
param *.uav[38].startX 2185m
param *.uav[38].startY 3026m
param *.uav[38].startZ 778m
param *.uav[39].startX 3537m
param *.uav[39].startY 965m
param *.uav[39].startZ 539m
param *.uav[40].startX 3537m
param *.uav[40].startY 965m
param *.uav[40].startZ 539m
param *.uav[41].startX 312m
param *.uav[41].startY 1262m
param *.uav[41].startZ 540m
param *.uav[42].startX 2185m
param *.uav[42].startY 3026m
param *.uav[42].startZ 778m
param *.uav[43].startX 3537m
param *.uav[43].startY 965m
param *.uav[43].startZ 539m
param *.uav[44].startX 312m
param *.uav[44].startY 1262m
param *.uav[44].startZ 540m
param *.uav[45].startX 2185m
param *.uav[45].startY 3026m
param *.uav[45].startZ 778m
param *.uav[46].startX 3537m
param *.uav[46].startY 965m
param *.uav[46].startZ 539m
param *.uav[47].startX 312m
param *.uav[47].startY 1262m
param *.uav[47].startZ 540m
param *.uav[48].startX 2185m
param *.uav[48].startY 3026m
param *.uav[48].startZ 778m
param *.uav[49].startX 3537m
param *.uav[49].startY 965m
param *.uav[49].startZ 539m
param *.uav[50].startX 3537m
param *.uav[50].startY 965m
param *.uav[50].startZ 539m
param *.uav[51].startX 312m
param *.uav[51].startY 1262m
param *.uav[51].startZ 540m
param *.uav[52].startX 2185m
param *.uav[52].startY 3026m
param *.uav[52].startZ 778m
param *.uav[53].startX 3537m
param *.uav[53].startY 965m
param *.uav[53].startZ 539m
param *.uav[54].startX 312m
param *.uav[54].startY 1262m
param *.uav[54].startZ 540m
param *.uav[55].startX 2185m
param *.uav[55].startY 3026m
param *.uav[55].startZ 778m
param *.uav[56].startX 3537m
param *.uav[56].startY 965m
param *.uav[56].startZ 539m
param *.uav[57].startX 312m
param *.uav[57].startY 1262m
param *.uav[57].startZ 540m
param *.uav[58].startX 2185m
param *.uav[58].startY 3026m
param *.uav[58].startZ 778m
param *.uav[59].startX 3537m
param *.uav[59].startY 965m
param *.uav[59].startZ 539m
param *.uav[60].startX 3537m
param *.uav[60].startY 965m
param *.uav[60].startZ 539m
param *.uav[61].startX 312m
param *.uav[61].startY 1262m
param *.uav[61].startZ 540m
param *.uav[62].startX 2185m
param *.uav[62].startY 3026m
param *.uav[62].startZ 778m
param *.uav[63].startX 3537m
param *.uav[63].startY 965m
param *.uav[63].startZ 539m
param *.uav[64].startX 312m
param *.uav[64].startY 1262m
param *.uav[64].startZ 540m
param *.uav[65].startX 2185m
param *.uav[65].startY 3026m
param *.uav[65].startZ 778m
param *.uav[66].startX 3537m
param *.uav[66].startY 965m
param *.uav[66].startZ 539m
param *.uav[67].startX 312m
param *.uav[67].startY 1262m
param *.uav[67].startZ 540m
param *.uav[68].startX 2185m
param *.uav[68].startY 3026m
param *.uav[68].startZ 778m
param *.uav[69].startX 3537m
param *.uav[69].startY 965m
param *.uav[69].startZ 539m
param *.uav[70].startX 3537m
param *.uav[70].startY 965m
param *.uav[70].startZ 539m
param *.uav[71].startX 312m
param *.uav[71].startY 1262m
param *.uav[71].startZ 540m
param *.uav[72].startX 2185m
param *.uav[72].startY 3026m
param *.uav[72].startZ 778m
param *.uav[73].startX 3537m
param *.uav[73].startY 965m
param *.uav[73].startZ 539m
param *.uav[74].startX 312m
param *.uav[74].startY 1262m
param *.uav[74].startZ 540m
param *.uav[75].startX 2185m
param *.uav[75].startY 3026m
param *.uav[75].startZ 778m
param *.uav[76].startX 3537m
param *.uav[76].startY 965m
param *.uav[76].startZ 539m
param *.uav[77].startX 312m
param *.uav[77].startY 1262m
param *.uav[77].startZ 540m
param *.uav[78].startX 2185m
param *.uav[78].startY 3026m
param *.uav[78].startZ 778m
param *.uav[79].startX 3537m
param *.uav[79].startY 965m
param *.uav[79].startZ 539m
param *.uav[80].startX 3537m
param *.uav[80].startY 965m
param *.uav[80].startZ 539m
param *.uav[81].startX 312m
param *.uav[81].startY 1262m
param *.uav[81].startZ 540m
param *.uav[82].startX 2185m
param *.uav[82].startY 3026m
param *.uav[82].startZ 778m
param *.uav[83].startX 3537m
param *.uav[83].startY 965m
param *.uav[83].startZ 539m
param *.uav[84].startX 312m
param *.uav[84].startY 1262m
param *.uav[84].startZ 540m
param *.uav[85].startX 2185m
param *.uav[85].startY 3026m
param *.uav[85].startZ 778m
param *.uav[86].startX 3537m
param *.uav[86].startY 965m
param *.uav[86].startZ 539m
param *.uav[87].startX 312m
param *.uav[87].startY 1262m
param *.uav[87].startZ 540m
param *.uav[88].startX 2185m
param *.uav[88].startY 3026m
param *.uav[88].startZ 778m
param *.uav[89].startX 3537m
param *.uav[89].startY 965m
param *.uav[89].startZ 539m
param *.uav[90].startX 3537m
param *.uav[90].startY 965m
param *.uav[90].startZ 539m
param *.uav[91].startX 312m
param *.uav[91].startY 1262m
param *.uav[91].startZ 540m
param *.uav[92].startX 2185m
param *.uav[92].startY 3026m
param *.uav[92].startZ 778m
param *.uav[93].startX 3537m
param *.uav[93].startY 965m
param *.uav[93].startZ 539m
param *.uav[94].startX 312m
param *.uav[94].startY 1262m
param *.uav[94].startZ 540m
param *.uav[95].startX 2185m
param *.uav[95].startY 3026m
param *.uav[95].startZ 778m
param *.uav[96].startX 3537m
param *.uav[96].startY 965m
param *.uav[96].startZ 539m
param *.uav[97].startX 312m
param *.uav[97].startY 1262m
param *.uav[97].startZ 540m
param *.uav[98].startX 2185m
param *.uav[98].startY 3026m
param *.uav[98].startZ 778m
param *.uav[99].startX 3537m
param *.uav[99].startY 965m
param *.uav[99].startZ 539m
param *.osgEarthScene.scene "\"boston.earth\""
param *.playgroundLatitude 42.3558
param *.playgroundLongitude -71.0677
param *.playgroundWidth 400m
param *.playgroundHeight 200m
param *.channelController.connectionColor "\"#0000FF40\""
param *.channelController.showConnections false
param *.uav[*].modelURL "\"quadrocopter.small.obj.15.scale.0,0,90.rot\""
param *.uav[*].labelColor "\"#FF7C00CC\""
param *.uav[*].label2Color "\"#FF7C00EE\""
param *.uav[*].batteryCapacity 5200mAh
param *.uav[*].batteryRemaining uav[index].batteryCapacity
param *.uav[*].predictionQuantile 0.95
param *.uav[*].replacementMethod 2
param *.uav[*].weightedSumWeight 0.5
param *.cs[*].modelURL "\"chargingstation_v1.osgt.1.scale.0,0,0.rot.0,0,-15e-1.trans\""
param *.cs[*].spotsWaiting 999
param *.cs[*].spotsCharging 999
param *.cs[*].chargeEffectivenessPercentage 100
param *.cs[*].nonLinearPhaseStartPercentage 85
param *.cs[*].chargeCurrent 6.0A
param *.cs[*].prioritizeFastCharge true
param *.missionControl.replacementSearchMethod 0
param *.*.timeStep 9s

scalar OsgEarthNet.uav[0] utilizationSecMission 17462.596328247
scalar OsgEarthNet.uav[0] utilizationSecMaintenance 14545.389671753
scalar OsgEarthNet.uav[0] utilizationSecCharge 115890
scalar OsgEarthNet.uav[0] utilizationSecIdle 111302.013
scalar OsgEarthNet.uav[0] utilizationEnergyMission 84912.014976117
scalar OsgEarthNet.uav[0] utilizationEnergyMaintenance 67691.928092956
scalar OsgEarthNet.uav[0] utilizationEnergyCharge 151189.76660156
scalar OsgEarthNet.uav[0] utilizationEnergyOverdrawMission 0
scalar OsgEarthNet.uav[0] utilizationEnergyOverdrawMaintenance 0
scalar OsgEarthNet.uav[0] utilizationCountMissions 35
scalar OsgEarthNet.uav[0] utilizationCountManeuversMission 629
scalar OsgEarthNet.uav[0] utilizationCountManeuversMaintenance 71
scalar OsgEarthNet.uav[0] utilizationCountChargeState 35
scalar OsgEarthNet.uav[0] utilizationCountOverdrawnAfterMission 0
scalar OsgEarthNet.uav[0] utilizationCountIdleState 36
scalar OsgEarthNet.uav[0] utilizationFail 0
scalar OsgEarthNet.uav[0] simulationTime 259200
scalar OsgEarthNet.uav[1] utilizationSecMission 15338.227805663
scalar OsgEarthNet.uav[1] utilizationSecMaintenance 13026.715336095
scalar OsgEarthNet.uav[1] utilizationSecCharge 101659.60876955
scalar OsgEarthNet.uav[1] utilizationSecIdle 129175.44708869
scalar OsgEarthNet.uav[1] utilizationEnergyMission 72846.171043396
scalar OsgEarthNet.uav[1] utilizationEnergyMaintenance 60943.430007935
scalar OsgEarthNet.uav[1] utilizationEnergyCharge 133962.72241211
scalar OsgEarthNet.uav[1] utilizationEnergyOverdrawMission 0
scalar OsgEarthNet.uav[1] utilizationEnergyOverdrawMaintenance 0
scalar OsgEarthNet.uav[1] utilizationCountMissions 31
scalar OsgEarthNet.uav[1] utilizationCountManeuversMission 453
scalar OsgEarthNet.uav[1] utilizationCountManeuversMaintenance 62
scalar OsgEarthNet.uav[1] utilizationCountChargeState 31
scalar OsgEarthNet.uav[1] utilizationCountOverdrawnAfterMission 0
scalar OsgEarthNet.uav[1] utilizationCountIdleState 31
scalar OsgEarthNet.uav[1] utilizationFail 0
scalar OsgEarthNet.uav[1] simulationTime 259200
scalar OsgEarthNet.uav[2] utilizationSecMission 27092.976269258
scalar OsgEarthNet.uav[2] utilizationSecMaintenance 24513.626724441
scalar OsgEarthNet.uav[2] utilizationSecCharge 183774.17639238
scalar OsgEarthNet.uav[2] utilizationSecIdle 23819.219613916
scalar OsgEarthNet.uav[2] utilizationEnergyMission 131854.77172852
scalar OsgEarthNet.uav[2] utilizationEnergyMaintenance 113382.66812134
scalar OsgEarthNet.uav[2] utilizationEnergyCharge 240291.54040527
scalar OsgEarthNet.uav[2] utilizationEnergyOverdrawMission 0
scalar OsgEarthNet.uav[2] utilizationEnergyOverdrawMaintenance 0
scalar OsgEarthNet.uav[2] utilizationCountMissions 56
scalar OsgEarthNet.uav[2] utilizationCountManeuversMission 807
scalar OsgEarthNet.uav[2] utilizationCountManeuversMaintenance 112
scalar OsgEarthNet.uav[2] utilizationCountChargeState 56
scalar OsgEarthNet.uav[2] utilizationCountOverdrawnAfterMission 0
scalar OsgEarthNet.uav[2] utilizationCountIdleState 56
scalar OsgEarthNet.uav[2] utilizationFail 0
scalar OsgEarthNet.uav[2] simulationTime 259200
scalar OsgEarthNet.uav[3] utilizationSecMission 9079.0897603665
scalar OsgEarthNet.uav[3] utilizationSecMaintenance 7283.5673745613
scalar OsgEarthNet.uav[3] utilizationSecCharge 56776.389609407
scalar OsgEarthNet.uav[3] utilizationSecIdle 186060.95225566
scalar OsgEarthNet.uav[3] utilizationEnergyMission 45488.741394043
scalar OsgEarthNet.uav[3] utilizationEnergyMaintenance 33903.128921509
scalar OsgEarthNet.uav[3] utilizationEnergyCharge 74232.364990234
scalar OsgEarthNet.uav[3] utilizationEnergyOverdrawMission 0
scalar OsgEarthNet.uav[3] utilizationEnergyOverdrawMaintenance 0
scalar OsgEarthNet.uav[3] utilizationCountMissions 18
scalar OsgEarthNet.uav[3] utilizationCountManeuversMission 331
scalar OsgEarthNet.uav[3] utilizationCountManeuversMaintenance 36
scalar OsgEarthNet.uav[3] utilizationCountChargeState 18
scalar OsgEarthNet.uav[3] utilizationCountOverdrawnAfterMission 0
scalar OsgEarthNet.uav[3] utilizationCountIdleState 18
scalar OsgEarthNet.uav[3] utilizationFail 0
scalar OsgEarthNet.uav[3] simulationTime 259200
scalar OsgEarthNet.uav[4] utilizationSecMission 25618.56182865
scalar OsgEarthNet.uav[4] utilizationSecMaintenance 25121.878587257
scalar OsgEarthNet.uav[4] utilizationSecCharge 183523.09724087
scalar OsgEarthNet.uav[4] utilizationSecIdle 24936.461343226
scalar OsgEarthNet.uav[4] utilizationEnergyMission 122374.64416504
scalar OsgEarthNet.uav[4] utilizationEnergyMaintenance 116990.78835678
scalar OsgEarthNet.uav[4] utilizationEnergyCharge 240923.00292969
scalar OsgEarthNet.uav[4] utilizationEnergyOverdrawMission 0
scalar OsgEarthNet.uav[4] utilizationEnergyOverdrawMaintenance 0
scalar OsgEarthNet.uav[4] utilizationCountMissions 55
scalar OsgEarthNet.uav[4] utilizationCountManeuversMission 782
scalar OsgEarthNet.uav[4] utilizationCountManeuversMaintenance 110
scalar OsgEarthNet.uav[4] utilizationCountChargeState 55
scalar OsgEarthNet.uav[4] utilizationCountOverdrawnAfterMission 0
scalar OsgEarthNet.uav[4] utilizationCountIdleState 55
scalar OsgEarthNet.uav[4] utilizationFail 0
scalar OsgEarthNet.uav[4] simulationTime 259200
scalar OsgEarthNet.uav[5] utilizationSecMission 26012.229085913
scalar OsgEarthNet.uav[5] utilizationSecMaintenance 24212.812206888
scalar OsgEarthNet.uav[5] utilizationSecCharge 183892.9557072
scalar OsgEarthNet.uav[5] utilizationSecIdle 25082.002
scalar OsgEarthNet.uav[5] utilizationEnergyMission 125409.80540466
scalar OsgEarthNet.uav[5] utilizationEnergyMaintenance 114174.13207626
scalar OsgEarthNet.uav[5] utilizationEnergyCharge 241139.88012695
scalar OsgEarthNet.uav[5] utilizationEnergyOverdrawMission 0
scalar OsgEarthNet.uav[5] utilizationEnergyOverdrawMaintenance 172.15461730957
scalar OsgEarthNet.uav[5] utilizationCountMissions 55
scalar OsgEarthNet.uav[5] utilizationCountManeuversMission 843
scalar OsgEarthNet.uav[5] utilizationCountManeuversMaintenance 110
scalar OsgEarthNet.uav[5] utilizationCountChargeState 55
scalar OsgEarthNet.uav[5] utilizationCountOverdrawnAfterMission 2
scalar OsgEarthNet.uav[5] utilizationCountIdleState 55
scalar OsgEarthNet.uav[5] utilizationFail 0
scalar OsgEarthNet.uav[5] simulationTime 259200
scalar OsgEarthNet.uav[6] utilizationSecMission 19470.176303821
scalar OsgEarthNet.uav[6] utilizationSecMaintenance 18734.762395663
scalar OsgEarthNet.uav[6] utilizationSecCharge 138613.04830052
scalar OsgEarthNet.uav[6] utilizationSecIdle 82382.012
scalar OsgEarthNet.uav[6] utilizationEnergyMission 95410.180381775
scalar OsgEarthNet.uav[6] utilizationEnergyMaintenance 87584.681354523
scalar OsgEarthNet.uav[6] utilizationEnergyCharge 182038.94555664
scalar OsgEarthNet.uav[6] utilizationEnergyOverdrawMission 0
scalar OsgEarthNet.uav[6] utilizationEnergyOverdrawMaintenance 0
scalar OsgEarthNet.uav[6] utilizationCountMissions 42
scalar OsgEarthNet.uav[6] utilizationCountManeuversMission 614
scalar OsgEarthNet.uav[6] utilizationCountManeuversMaintenance 84
scalar OsgEarthNet.uav[6] utilizationCountChargeState 42
scalar OsgEarthNet.uav[6] utilizationCountOverdrawnAfterMission 0
scalar OsgEarthNet.uav[6] utilizationCountIdleState 42
scalar OsgEarthNet.uav[6] utilizationFail 0
scalar OsgEarthNet.uav[6] simulationTime 259200
scalar OsgEarthNet.uav[7] utilizationSecMission 24401.39365118
scalar OsgEarthNet.uav[7] utilizationSecMaintenance 18716.59734882
scalar OsgEarthNet.uav[7] utilizationSecCharge 154110
scalar OsgEarthNet.uav[7] utilizationSecIdle 61972.008
scalar OsgEarthNet.uav[7] utilizationEnergyMission 120845.72431763
scalar OsgEarthNet.uav[7] utilizationEnergyMaintenance 86384.769996643
scalar OsgEarthNet.uav[7] utilizationEnergyCharge 201892.32617188
scalar OsgEarthNet.uav[7] utilizationEnergyOverdrawMission 0
scalar OsgEarthNet.uav[7] utilizationEnergyOverdrawMaintenance 0
scalar OsgEarthNet.uav[7] utilizationCountMissions 46
scalar OsgEarthNet.uav[7] utilizationCountManeuversMission 775
scalar OsgEarthNet.uav[7] utilizationCountManeuversMaintenance 93
scalar OsgEarthNet.uav[7] utilizationCountChargeState 46
scalar OsgEarthNet.uav[7] utilizationCountOverdrawnAfterMission 0
scalar OsgEarthNet.uav[7] utilizationCountIdleState 47
scalar OsgEarthNet.uav[7] utilizationFail 0
scalar OsgEarthNet.uav[7] simulationTime 259200
scalar OsgEarthNet.uav[8] utilizationSecMission 19263.234209753
scalar OsgEarthNet.uav[8] utilizationSecMaintenance 20623.966876112
scalar OsgEarthNet.uav[8] utilizationSecCharge 144282.75536672
scalar OsgEarthNet.uav[8] utilizationSecIdle 75030.042547415
scalar OsgEarthNet.uav[8] utilizationEnergyMission 93468.591838837
scalar OsgEarthNet.uav[8] utilizationEnergyMaintenance 95948.95054245
scalar OsgEarthNet.uav[8] utilizationEnergyCharge 189183.61303711
scalar OsgEarthNet.uav[8] utilizationEnergyOverdrawMission 0
scalar OsgEarthNet.uav[8] utilizationEnergyOverdrawMaintenance 0
scalar OsgEarthNet.uav[8] utilizationCountMissions 44
scalar OsgEarthNet.uav[8] utilizationCountManeuversMission 621
scalar OsgEarthNet.uav[8] utilizationCountManeuversMaintenance 88
scalar OsgEarthNet.uav[8] utilizationCountChargeState 44
scalar OsgEarthNet.uav[8] utilizationCountOverdrawnAfterMission 0
scalar OsgEarthNet.uav[8] utilizationCountIdleState 44
scalar OsgEarthNet.uav[8] utilizationFail 0
scalar OsgEarthNet.uav[8] simulationTime 259200
scalar OsgEarthNet.uav[9] utilizationSecMission 7477.5130350243
scalar OsgEarthNet.uav[9] utilizationSecMaintenance 9706.2910852047
scalar OsgEarthNet.uav[9] utilizationSecCharge 62760
scalar OsgEarthNet.uav[9] utilizationSecIdle 179256.19487977
scalar OsgEarthNet.uav[9] utilizationEnergyMission 36457.557544708
scalar OsgEarthNet.uav[9] utilizationEnergyMaintenance 44562.939220428
scalar OsgEarthNet.uav[9] utilizationEnergyCharge 81541.683837891
scalar OsgEarthNet.uav[9] utilizationEnergyOverdrawMission 0
scalar OsgEarthNet.uav[9] utilizationEnergyOverdrawMaintenance 0
scalar OsgEarthNet.uav[9] utilizationCountMissions 19
scalar OsgEarthNet.uav[9] utilizationCountManeuversMission 265
scalar OsgEarthNet.uav[9] utilizationCountManeuversMaintenance 38
scalar OsgEarthNet.uav[9] utilizationCountChargeState 19
scalar OsgEarthNet.uav[9] utilizationCountOverdrawnAfterMission 0
scalar OsgEarthNet.uav[9] utilizationCountIdleState 20
scalar OsgEarthNet.uav[9] utilizationFail 0
scalar OsgEarthNet.uav[9] simulationTime 259200
scalar OsgEarthNet.uav[10] utilizationSecMission 20599.832133564
scalar OsgEarthNet.uav[10] utilizationSecMaintenance 22067.806185424
scalar OsgEarthNet.uav[10] utilizationSecCharge 153330.34968101
scalar OsgEarthNet.uav[10] utilizationSecIdle 63202.011
scalar OsgEarthNet.uav[10] utilizationEnergyMission 100118.22164536
scalar OsgEarthNet.uav[10] utilizationEnergyMaintenance 103139.17966843
scalar OsgEarthNet.uav[10] utilizationEnergyCharge 200300.67047119
scalar OsgEarthNet.uav[10] utilizationEnergyOverdrawMission 0
scalar OsgEarthNet.uav[10] utilizationEnergyOverdrawMaintenance 0
scalar OsgEarthNet.uav[10] utilizationCountMissions 47
scalar OsgEarthNet.uav[10] utilizationCountManeuversMission 658
scalar OsgEarthNet.uav[10] utilizationCountManeuversMaintenance 94
scalar OsgEarthNet.uav[10] utilizationCountChargeState 47
scalar OsgEarthNet.uav[10] utilizationCountOverdrawnAfterMission 0
scalar OsgEarthNet.uav[10] utilizationCountIdleState 47
scalar OsgEarthNet.uav[10] utilizationFail 0
scalar OsgEarthNet.uav[10] simulationTime 259200
scalar OsgEarthNet.uav[11] utilizationSecMission 26237.997345505
scalar OsgEarthNet.uav[11] utilizationSecMaintenance 21746.41502418
scalar OsgEarthNet.uav[11] utilizationSecCharge 171225.75573905
scalar OsgEarthNet.uav[11] utilizationSecIdle 39989.830891268
scalar OsgEarthNet.uav[11] utilizationEnergyMission 123812.66992569
scalar OsgEarthNet.uav[11] utilizationEnergyMaintenance 102279.71631241
scalar OsgEarthNet.uav[11] utilizationEnergyCharge 224885.71386719
scalar OsgEarthNet.uav[11] utilizationEnergyOverdrawMission 0
scalar OsgEarthNet.uav[11] utilizationEnergyOverdrawMaintenance 0
scalar OsgEarthNet.uav[11] utilizationCountMissions 52
scalar OsgEarthNet.uav[11] utilizationCountManeuversMission 734
scalar OsgEarthNet.uav[11] utilizationCountManeuversMaintenance 104
scalar OsgEarthNet.uav[11] utilizationCountChargeState 52
scalar OsgEarthNet.uav[11] utilizationCountOverdrawnAfterMission 0
scalar OsgEarthNet.uav[11] utilizationCountIdleState 52
scalar OsgEarthNet.uav[11] utilizationFail 0
scalar OsgEarthNet.uav[11] simulationTime 259200
scalar OsgEarthNet.uav[12] utilizationSecMission 25012.771345074
scalar OsgEarthNet.uav[12] utilizationSecMaintenance 20428.654072634
scalar OsgEarthNet.uav[12] utilizationSecCharge 165900
scalar OsgEarthNet.uav[12] utilizationSecIdle 47858.573582292
scalar OsgEarthNet.uav[12] utilizationEnergyMission 126168.18622806
scalar OsgEarthNet.uav[12] utilizationEnergyMaintenance 95580.560470581
scalar OsgEarthNet.uav[12] utilizationEnergyCharge 217037.51464844
scalar OsgEarthNet.uav[12] utilizationEnergyOverdrawMission 0
scalar OsgEarthNet.uav[12] utilizationEnergyOverdrawMaintenance 95.46720123291
scalar OsgEarthNet.uav[12] utilizationCountMissions 50
scalar OsgEarthNet.uav[12] utilizationCountManeuversMission 887
scalar OsgEarthNet.uav[12] utilizationCountManeuversMaintenance 101
scalar OsgEarthNet.uav[12] utilizationCountChargeState 50
scalar OsgEarthNet.uav[12] utilizationCountOverdrawnAfterMission 1
scalar OsgEarthNet.uav[12] utilizationCountIdleState 51
scalar OsgEarthNet.uav[12] utilizationFail 0
scalar OsgEarthNet.uav[12] simulationTime 259200
scalar OsgEarthNet.uav[13] utilizationSecMission 23594.120021285
scalar OsgEarthNet.uav[13] utilizationSecMaintenance 23392.486858165
scalar OsgEarthNet.uav[13] utilizationSecCharge 172150
scalar OsgEarthNet.uav[13] utilizationSecIdle 40063.392120551
scalar OsgEarthNet.uav[13] utilizationEnergyMission 115660.72450256
scalar OsgEarthNet.uav[13] utilizationEnergyMaintenance 110028.90505586
scalar OsgEarthNet.uav[13] utilizationEnergyCharge 224402.90844727
scalar OsgEarthNet.uav[13] utilizationEnergyOverdrawMission 0
scalar OsgEarthNet.uav[13] utilizationEnergyOverdrawMaintenance 0
scalar OsgEarthNet.uav[13] utilizationCountMissions 52
scalar OsgEarthNet.uav[13] utilizationCountManeuversMission 757
scalar OsgEarthNet.uav[13] utilizationCountManeuversMaintenance 105
scalar OsgEarthNet.uav[13] utilizationCountChargeState 52
scalar OsgEarthNet.uav[13] utilizationCountOverdrawnAfterMission 0
scalar OsgEarthNet.uav[13] utilizationCountIdleState 53
scalar OsgEarthNet.uav[13] utilizationFail 0
scalar OsgEarthNet.uav[13] simulationTime 259200
scalar OsgEarthNet.uav[14] utilizationSecMission 26737.368473484
scalar OsgEarthNet.uav[14] utilizationSecMaintenance 22313.392794447
scalar OsgEarthNet.uav[14] utilizationSecCharge 177901.92264585
scalar OsgEarthNet.uav[14] utilizationSecIdle 32247.315086215
scalar OsgEarthNet.uav[14] utilizationEnergyMission 130068.62968826
scalar OsgEarthNet.uav[14] utilizationEnergyMaintenance 104459.890728
scalar OsgEarthNet.uav[14] utilizationEnergyCharge 233647.03417969
scalar OsgEarthNet.uav[14] utilizationEnergyOverdrawMission 0
scalar OsgEarthNet.uav[14] utilizationEnergyOverdrawMaintenance 0
scalar OsgEarthNet.uav[14] utilizationCountMissions 54
scalar OsgEarthNet.uav[14] utilizationCountManeuversMission 904
scalar OsgEarthNet.uav[14] utilizationCountManeuversMaintenance 108
scalar OsgEarthNet.uav[14] utilizationCountChargeState 54
scalar OsgEarthNet.uav[14] utilizationCountOverdrawnAfterMission 0
scalar OsgEarthNet.uav[14] utilizationCountIdleState 54
scalar OsgEarthNet.uav[14] utilizationFail 0
scalar OsgEarthNet.uav[14] simulationTime 259200
scalar OsgEarthNet.uav[15] utilizationSecMission 22964.55426268
scalar OsgEarthNet.uav[15] utilizationSecMaintenance 19352.140574864
scalar OsgEarthNet.uav[15] utilizationSecCharge 152717.55548226
scalar OsgEarthNet.uav[15] utilizationSecIdle 64165.748680198
scalar OsgEarthNet.uav[15] utilizationEnergyMission 109725.37783813
scalar OsgEarthNet.uav[15] utilizationEnergyMaintenance 90527.572063446
scalar OsgEarthNet.uav[15] utilizationEnergyCharge 200809.11938477
scalar OsgEarthNet.uav[15] utilizationEnergyOverdrawMission 0
scalar OsgEarthNet.uav[15] utilizationEnergyOverdrawMaintenance 0
scalar OsgEarthNet.uav[15] utilizationCountMissions 46
scalar OsgEarthNet.uav[15] utilizationCountManeuversMission 674
scalar OsgEarthNet.uav[15] utilizationCountManeuversMaintenance 92
scalar OsgEarthNet.uav[15] utilizationCountChargeState 46
scalar OsgEarthNet.uav[15] utilizationCountOverdrawnAfterMission 0
scalar OsgEarthNet.uav[15] utilizationCountIdleState 46
scalar OsgEarthNet.uav[15] utilizationFail 0
scalar OsgEarthNet.uav[15] simulationTime 259200
scalar OsgEarthNet.uav[16] utilizationSecMission 12661.720594424
scalar OsgEarthNet.uav[16] utilizationSecMaintenance 12789.2165784
scalar OsgEarthNet.uav[16] utilizationSecCharge 92200
scalar OsgEarthNet.uav[16] utilizationSecIdle 141549.06182718
scalar OsgEarthNet.uav[16] utilizationEnergyMission 60575.202362061
scalar OsgEarthNet.uav[16] utilizationEnergyMaintenance 59712.896476746
scalar OsgEarthNet.uav[16] utilizationEnergyCharge 119917.71386719
scalar OsgEarthNet.uav[16] utilizationEnergyOverdrawMission 0
scalar OsgEarthNet.uav[16] utilizationEnergyOverdrawMaintenance 0
scalar OsgEarthNet.uav[16] utilizationCountMissions 28
scalar OsgEarthNet.uav[16] utilizationCountManeuversMission 357
scalar OsgEarthNet.uav[16] utilizationCountManeuversMaintenance 56
scalar OsgEarthNet.uav[16] utilizationCountChargeState 28
scalar OsgEarthNet.uav[16] utilizationCountOverdrawnAfterMission 0
scalar OsgEarthNet.uav[16] utilizationCountIdleState 29
scalar OsgEarthNet.uav[16] utilizationFail 0
scalar OsgEarthNet.uav[16] simulationTime 259200
scalar OsgEarthNet.uav[17] utilizationSecMission 24518.600338437
scalar OsgEarthNet.uav[17] utilizationSecMaintenance 23072.10975763
scalar OsgEarthNet.uav[17] utilizationSecCharge 168525.45531378
scalar OsgEarthNet.uav[17] utilizationSecIdle 43083.833590156
scalar OsgEarthNet.uav[17] utilizationEnergyMission 116730.4574852
scalar OsgEarthNet.uav[17] utilizationEnergyMaintenance 107242.74266052
scalar OsgEarthNet.uav[17] utilizationEnergyCharge 221331.76330566
scalar OsgEarthNet.uav[17] utilizationEnergyOverdrawMission 0
scalar OsgEarthNet.uav[17] utilizationEnergyOverdrawMaintenance 348.64660644531
scalar OsgEarthNet.uav[17] utilizationCountMissions 51
scalar OsgEarthNet.uav[17] utilizationCountManeuversMission 663
scalar OsgEarthNet.uav[17] utilizationCountManeuversMaintenance 102
scalar OsgEarthNet.uav[17] utilizationCountChargeState 51
scalar OsgEarthNet.uav[17] utilizationCountOverdrawnAfterMission 1
scalar OsgEarthNet.uav[17] utilizationCountIdleState 51
scalar OsgEarthNet.uav[17] utilizationFail 0
scalar OsgEarthNet.uav[17] simulationTime 259200
scalar OsgEarthNet.uav[18] utilizationSecMission 25025.679564467
scalar OsgEarthNet.uav[18] utilizationSecMaintenance 25373.469378112
scalar OsgEarthNet.uav[18] utilizationSecCharge 182276.35211624
scalar OsgEarthNet.uav[18] utilizationSecIdle 26524.497941176
scalar OsgEarthNet.uav[18] utilizationEnergyMission 120106.13272095
scalar OsgEarthNet.uav[18] utilizationEnergyMaintenance 118255.50839996
scalar OsgEarthNet.uav[18] utilizationEnergyCharge 238646.57641602
scalar OsgEarthNet.uav[18] utilizationEnergyOverdrawMission 0
scalar OsgEarthNet.uav[18] utilizationEnergyOverdrawMaintenance 137.9084777832
scalar OsgEarthNet.uav[18] utilizationCountMissions 55
scalar OsgEarthNet.uav[18] utilizationCountManeuversMission 773
scalar OsgEarthNet.uav[18] utilizationCountManeuversMaintenance 110
scalar OsgEarthNet.uav[18] utilizationCountChargeState 55
scalar OsgEarthNet.uav[18] utilizationCountOverdrawnAfterMission 1
scalar OsgEarthNet.uav[18] utilizationCountIdleState 55
scalar OsgEarthNet.uav[18] utilizationFail 0
scalar OsgEarthNet.uav[18] simulationTime 259200
scalar OsgEarthNet.uav[19] utilizationSecMission 22711.711407781
scalar OsgEarthNet.uav[19] utilizationSecMaintenance 27225.911197155
scalar OsgEarthNet.uav[19] utilizationSecCharge 180720.37139506
scalar OsgEarthNet.uav[19] utilizationSecIdle 28542.005
scalar OsgEarthNet.uav[19] utilizationEnergyMission 112435.5781517
scalar OsgEarthNet.uav[19] utilizationEnergyMaintenance 125689.90120697
scalar OsgEarthNet.uav[19] utilizationEnergyCharge 236920.85693359
scalar OsgEarthNet.uav[19] utilizationEnergyOverdrawMission 0
scalar OsgEarthNet.uav[19] utilizationEnergyOverdrawMaintenance 0
scalar OsgEarthNet.uav[19] utilizationCountMissions 55
scalar OsgEarthNet.uav[19] utilizationCountManeuversMission 788
scalar OsgEarthNet.uav[19] utilizationCountManeuversMaintenance 110
scalar OsgEarthNet.uav[19] utilizationCountChargeState 55
scalar OsgEarthNet.uav[19] utilizationCountOverdrawnAfterMission 0
scalar OsgEarthNet.uav[19] utilizationCountIdleState 55
scalar OsgEarthNet.uav[19] utilizationFail 0
scalar OsgEarthNet.uav[19] simulationTime 259200
scalar OsgEarthNet.uav[20] utilizationSecMission 17925.130584156
scalar OsgEarthNet.uav[20] utilizationSecMaintenance 18621.416940561
scalar OsgEarthNet.uav[20] utilizationSecCharge 131208.18089815
scalar OsgEarthNet.uav[20] utilizationSecIdle 91445.270577134
scalar OsgEarthNet.uav[20] utilizationEnergyMission 85594.422550201
scalar OsgEarthNet.uav[20] utilizationEnergyMaintenance 88345.968288422
scalar OsgEarthNet.uav[20] utilizationEnergyCharge 172490.74316406
scalar OsgEarthNet.uav[20] utilizationEnergyOverdrawMission 0
scalar OsgEarthNet.uav[20] utilizationEnergyOverdrawMaintenance 0
scalar OsgEarthNet.uav[20] utilizationCountMissions 40
scalar OsgEarthNet.uav[20] utilizationCountManeuversMission 469
scalar OsgEarthNet.uav[20] utilizationCountManeuversMaintenance 80
scalar OsgEarthNet.uav[20] utilizationCountChargeState 40
scalar OsgEarthNet.uav[20] utilizationCountOverdrawnAfterMission 0
scalar OsgEarthNet.uav[20] utilizationCountIdleState 40
scalar OsgEarthNet.uav[20] utilizationFail 0
scalar OsgEarthNet.uav[20] simulationTime 259200
scalar OsgEarthNet.uav[21] utilizationSecMission 24750.514429205
scalar OsgEarthNet.uav[21] utilizationSecMaintenance 20938.428766834
scalar OsgEarthNet.uav[21] utilizationSecCharge 162900
scalar OsgEarthNet.uav[21] utilizationSecIdle 50611.055803961
scalar OsgEarthNet.uav[21] utilizationEnergyMission 120873.51048508
scalar OsgEarthNet.uav[21] utilizationEnergyMaintenance 98283.125679016
scalar OsgEarthNet.uav[21] utilizationEnergyCharge 213472.26220703
scalar OsgEarthNet.uav[21] utilizationEnergyOverdrawMission 0
scalar OsgEarthNet.uav[21] utilizationEnergyOverdrawMaintenance 0
scalar OsgEarthNet.uav[21] utilizationCountMissions 49
scalar OsgEarthNet.uav[21] utilizationCountManeuversMission 769
scalar OsgEarthNet.uav[21] utilizationCountManeuversMaintenance 99
scalar OsgEarthNet.uav[21] utilizationCountChargeState 49
scalar OsgEarthNet.uav[21] utilizationCountOverdrawnAfterMission 0
scalar OsgEarthNet.uav[21] utilizationCountIdleState 50
scalar OsgEarthNet.uav[21] utilizationFail 0
scalar OsgEarthNet.uav[21] simulationTime 259200
scalar OsgEarthNet.uav[22] utilizationSecMission 25350.563402485
scalar OsgEarthNet.uav[22] utilizationSecMaintenance 24239.942349632
scalar OsgEarthNet.uav[22] utilizationSecCharge 180439.86216722
scalar OsgEarthNet.uav[22] utilizationSecIdle 29169.631080665
scalar OsgEarthNet.uav[22] utilizationEnergyMission 124372.64752197
scalar OsgEarthNet.uav[22] utilizationEnergyMaintenance 112687.0935936
scalar OsgEarthNet.uav[22] utilizationEnergyCharge 237173.41137695
scalar OsgEarthNet.uav[22] utilizationEnergyOverdrawMission 0
scalar OsgEarthNet.uav[22] utilizationEnergyOverdrawMaintenance 0
scalar OsgEarthNet.uav[22] utilizationCountMissions 54
scalar OsgEarthNet.uav[22] utilizationCountManeuversMission 769
scalar OsgEarthNet.uav[22] utilizationCountManeuversMaintenance 108
scalar OsgEarthNet.uav[22] utilizationCountChargeState 54
scalar OsgEarthNet.uav[22] utilizationCountOverdrawnAfterMission 0
scalar OsgEarthNet.uav[22] utilizationCountIdleState 53
scalar OsgEarthNet.uav[22] utilizationFail 0
scalar OsgEarthNet.uav[22] simulationTime 259200
scalar OsgEarthNet.uav[23] utilizationSecMission 24441.960963096
scalar OsgEarthNet.uav[23] utilizationSecMaintenance 25006.032036904
scalar OsgEarthNet.uav[23] utilizationSecCharge 178480
scalar OsgEarthNet.uav[23] utilizationSecIdle 31272.006
scalar OsgEarthNet.uav[23] utilizationEnergyMission 119079.96163177
scalar OsgEarthNet.uav[23] utilizationEnergyMaintenance 116711.40062633
scalar OsgEarthNet.uav[23] utilizationEnergyCharge 234202.59545898
scalar OsgEarthNet.uav[23] utilizationEnergyOverdrawMission 0
scalar OsgEarthNet.uav[23] utilizationEnergyOverdrawMaintenance 150.87379455566
scalar OsgEarthNet.uav[23] utilizationCountMissions 54
scalar OsgEarthNet.uav[23] utilizationCountManeuversMission 910
scalar OsgEarthNet.uav[23] utilizationCountManeuversMaintenance 108
scalar OsgEarthNet.uav[23] utilizationCountChargeState 53
scalar OsgEarthNet.uav[23] utilizationCountOverdrawnAfterMission 1
scalar OsgEarthNet.uav[23] utilizationCountIdleState 54
scalar OsgEarthNet.uav[23] utilizationFail 0
scalar OsgEarthNet.uav[23] simulationTime 259200
scalar OsgEarthNet.uav[24] utilizationSecMission 26052.946903042
scalar OsgEarthNet.uav[24] utilizationSecMaintenance 20858.99976741
scalar OsgEarthNet.uav[24] utilizationSecCharge 167186.04632955
scalar OsgEarthNet.uav[24] utilizationSecIdle 45102.006
scalar OsgEarthNet.uav[24] utilizationEnergyMission 125655.69943619
scalar OsgEarthNet.uav[24] utilizationEnergyMaintenance 95761.276676178
scalar OsgEarthNet.uav[24] utilizationEnergyCharge 219595.37512207
scalar OsgEarthNet.uav[24] utilizationEnergyOverdrawMission 0
scalar OsgEarthNet.uav[24] utilizationEnergyOverdrawMaintenance 0
scalar OsgEarthNet.uav[24] utilizationCountMissions 51
scalar OsgEarthNet.uav[24] utilizationCountManeuversMission 744
scalar OsgEarthNet.uav[24] utilizationCountManeuversMaintenance 102
scalar OsgEarthNet.uav[24] utilizationCountChargeState 51
scalar OsgEarthNet.uav[24] utilizationCountOverdrawnAfterMission 0
scalar OsgEarthNet.uav[24] utilizationCountIdleState 51
scalar OsgEarthNet.uav[24] utilizationFail 0
scalar OsgEarthNet.uav[24] simulationTime 259200
scalar OsgEarthNet.uav[25] utilizationSecMission 19958.90690523
scalar OsgEarthNet.uav[25] utilizationSecMaintenance 15622.655275927
scalar OsgEarthNet.uav[25] utilizationSecCharge 128066.42981884
scalar OsgEarthNet.uav[25] utilizationSecIdle 95552.007
scalar OsgEarthNet.uav[25] utilizationEnergyMission 96181.063602448
scalar OsgEarthNet.uav[25] utilizationEnergyMaintenance 73429.900741577
scalar OsgEarthNet.uav[25] utilizationEnergyCharge 168252.35229492
scalar OsgEarthNet.uav[25] utilizationEnergyOverdrawMission 0
scalar OsgEarthNet.uav[25] utilizationEnergyOverdrawMaintenance 81.926734924316
scalar OsgEarthNet.uav[25] utilizationCountMissions 39
scalar OsgEarthNet.uav[25] utilizationCountManeuversMission 599
scalar OsgEarthNet.uav[25] utilizationCountManeuversMaintenance 78
scalar OsgEarthNet.uav[25] utilizationCountChargeState 39
scalar OsgEarthNet.uav[25] utilizationCountOverdrawnAfterMission 1
scalar OsgEarthNet.uav[25] utilizationCountIdleState 39
scalar OsgEarthNet.uav[25] utilizationFail 0
scalar OsgEarthNet.uav[25] simulationTime 259200
scalar OsgEarthNet.uav[26] utilizationSecMission 2631.7384856689
scalar OsgEarthNet.uav[26] utilizationSecMaintenance 1267.3062586664
scalar OsgEarthNet.uav[26] utilizationSecCharge 13390
scalar OsgEarthNet.uav[26] utilizationSecIdle 241910.95425566
scalar OsgEarthNet.uav[26] utilizationEnergyMission 13643.399913055
scalar OsgEarthNet.uav[26] utilizationEnergyMaintenance 6033.0457611084
scalar OsgEarthNet.uav[26] utilizationEnergyCharge 17544.297119141
scalar OsgEarthNet.uav[26] utilizationEnergyOverdrawMission 0
scalar OsgEarthNet.uav[26] utilizationEnergyOverdrawMaintenance 0
scalar OsgEarthNet.uav[26] utilizationCountMissions 4
scalar OsgEarthNet.uav[26] utilizationCountManeuversMission 103
scalar OsgEarthNet.uav[26] utilizationCountManeuversMaintenance 9
scalar OsgEarthNet.uav[26] utilizationCountChargeState 4
scalar OsgEarthNet.uav[26] utilizationCountOverdrawnAfterMission 0
scalar OsgEarthNet.uav[26] utilizationCountIdleState 5
scalar OsgEarthNet.uav[26] utilizationFail 0
scalar OsgEarthNet.uav[26] simulationTime 259200
scalar OsgEarthNet.uav[27] utilizationSecMission 10736.141986584
scalar OsgEarthNet.uav[27] utilizationSecMaintenance 9442.2847899229
scalar OsgEarthNet.uav[27] utilizationSecCharge 73450
scalar OsgEarthNet.uav[27] utilizationSecIdle 165571.57222349
scalar OsgEarthNet.uav[27] utilizationEnergyMission 51845.934944153
scalar OsgEarthNet.uav[27] utilizationEnergyMaintenance 44521.580871582
scalar OsgEarthNet.uav[27] utilizationEnergyCharge 96241.270751953
scalar OsgEarthNet.uav[27] utilizationEnergyOverdrawMission 0
scalar OsgEarthNet.uav[27] utilizationEnergyOverdrawMaintenance 0
scalar OsgEarthNet.uav[27] utilizationCountMissions 22
scalar OsgEarthNet.uav[27] utilizationCountManeuversMission 346
scalar OsgEarthNet.uav[27] utilizationCountManeuversMaintenance 44
scalar OsgEarthNet.uav[27] utilizationCountChargeState 22
scalar OsgEarthNet.uav[27] utilizationCountOverdrawnAfterMission 0
scalar OsgEarthNet.uav[27] utilizationCountIdleState 23
scalar OsgEarthNet.uav[27] utilizationFail 0
scalar OsgEarthNet.uav[27] simulationTime 259200
scalar OsgEarthNet.uav[28] utilizationSecMission 25941.178888413
scalar OsgEarthNet.uav[28] utilizationSecMaintenance 22065.517128681
scalar OsgEarthNet.uav[28] utilizationSecCharge 171061.29798291
scalar OsgEarthNet.uav[28] utilizationSecIdle 40132.005
scalar OsgEarthNet.uav[28] utilizationEnergyMission 123516.14241028
scalar OsgEarthNet.uav[28] utilizationEnergyMaintenance 101859.44774628
scalar OsgEarthNet.uav[28] utilizationEnergyCharge 224581.18994141
scalar OsgEarthNet.uav[28] utilizationEnergyOverdrawMission 0
scalar OsgEarthNet.uav[28] utilizationEnergyOverdrawMaintenance 0
scalar OsgEarthNet.uav[28] utilizationCountMissions 52
scalar OsgEarthNet.uav[28] utilizationCountManeuversMission 756
scalar OsgEarthNet.uav[28] utilizationCountManeuversMaintenance 104
scalar OsgEarthNet.uav[28] utilizationCountChargeState 52
scalar OsgEarthNet.uav[28] utilizationCountOverdrawnAfterMission 0
scalar OsgEarthNet.uav[28] utilizationCountIdleState 52
scalar OsgEarthNet.uav[28] utilizationFail 0
scalar OsgEarthNet.uav[28] simulationTime 259200
scalar OsgEarthNet.uav[29] utilizationSecMission 27637.88783681
scalar OsgEarthNet.uav[29] utilizationSecMaintenance 24096.058523583
scalar OsgEarthNet.uav[29] utilizationSecCharge 184934.05163961
scalar OsgEarthNet.uav[29] utilizationSecIdle 22532.001
scalar OsgEarthNet.uav[29] utilizationEnergyMission 131736.00174332
scalar OsgEarthNet.uav[29] utilizationEnergyMaintenance 111433.42977905
scalar OsgEarthNet.uav[29] utilizationEnergyCharge 242505.61303711
scalar OsgEarthNet.uav[29] utilizationEnergyOverdrawMission 0
scalar OsgEarthNet.uav[29] utilizationEnergyOverdrawMaintenance 0
scalar OsgEarthNet.uav[29] utilizationCountMissions 56
scalar OsgEarthNet.uav[29] utilizationCountManeuversMission 746
scalar OsgEarthNet.uav[29] utilizationCountManeuversMaintenance 112
scalar OsgEarthNet.uav[29] utilizationCountChargeState 56
scalar OsgEarthNet.uav[29] utilizationCountOverdrawnAfterMission 0
scalar OsgEarthNet.uav[29] utilizationCountIdleState 56
scalar OsgEarthNet.uav[29] utilizationFail 0
scalar OsgEarthNet.uav[29] simulationTime 259200
scalar OsgEarthNet.uav[30] utilizationSecMission 25039.109666435
scalar OsgEarthNet.uav[30] utilizationSecMaintenance 24138.055424833
scalar OsgEarthNet.uav[30] utilizationSecCharge 176030.82690873
scalar OsgEarthNet.uav[30] utilizationSecIdle 33992.007
scalar OsgEarthNet.uav[30] utilizationEnergyMission 123177.36954117
scalar OsgEarthNet.uav[30] utilizationEnergyMaintenance 111846.08160782
scalar OsgEarthNet.uav[30] utilizationEnergyCharge 229810.90362549
scalar OsgEarthNet.uav[30] utilizationEnergyOverdrawMission 0
scalar OsgEarthNet.uav[30] utilizationEnergyOverdrawMaintenance 0
scalar OsgEarthNet.uav[30] utilizationCountMissions 54
scalar OsgEarthNet.uav[30] utilizationCountManeuversMission 841
scalar OsgEarthNet.uav[30] utilizationCountManeuversMaintenance 108
scalar OsgEarthNet.uav[30] utilizationCountChargeState 54
scalar OsgEarthNet.uav[30] utilizationCountOverdrawnAfterMission 0
scalar OsgEarthNet.uav[30] utilizationCountIdleState 54
scalar OsgEarthNet.uav[30] utilizationFail 0
scalar OsgEarthNet.uav[30] simulationTime 259200
scalar OsgEarthNet.uav[31] utilizationSecMission 18327.839232098
scalar OsgEarthNet.uav[31] utilizationSecMaintenance 18528.835198312
scalar OsgEarthNet.uav[31] utilizationSecCharge 132680
scalar OsgEarthNet.uav[31] utilizationSecIdle 89663.32456959
scalar OsgEarthNet.uav[31] utilizationEnergyMission 88849.109256744
scalar OsgEarthNet.uav[31] utilizationEnergyMaintenance 85493.981624603
scalar OsgEarthNet.uav[31] utilizationEnergyCharge 173400.91967773
scalar OsgEarthNet.uav[31] utilizationEnergyOverdrawMission 0
scalar OsgEarthNet.uav[31] utilizationEnergyOverdrawMaintenance 0
scalar OsgEarthNet.uav[31] utilizationCountMissions 40
scalar OsgEarthNet.uav[31] utilizationCountManeuversMission 563
scalar OsgEarthNet.uav[31] utilizationCountManeuversMaintenance 80
scalar OsgEarthNet.uav[31] utilizationCountChargeState 40
scalar OsgEarthNet.uav[31] utilizationCountOverdrawnAfterMission 0
scalar OsgEarthNet.uav[31] utilizationCountIdleState 41
scalar OsgEarthNet.uav[31] utilizationFail 0
scalar OsgEarthNet.uav[31] simulationTime 259200
scalar OsgEarthNet.uav[32] utilizationSecMission 25399.891831631
scalar OsgEarthNet.uav[32] utilizationSecMaintenance 26669.850020988
scalar OsgEarthNet.uav[32] utilizationSecCharge 187588.25714738
scalar OsgEarthNet.uav[32] utilizationSecIdle 19542
scalar OsgEarthNet.uav[32] utilizationEnergyMission 124876.06740646
scalar OsgEarthNet.uav[32] utilizationEnergyMaintenance 123624.05368805
scalar OsgEarthNet.uav[32] utilizationEnergyCharge 245805.04833984
scalar OsgEarthNet.uav[32] utilizationEnergyOverdrawMission 0
scalar OsgEarthNet.uav[32] utilizationEnergyOverdrawMaintenance 32.67818069458
scalar OsgEarthNet.uav[32] utilizationCountMissions 57
scalar OsgEarthNet.uav[32] utilizationCountManeuversMission 842
scalar OsgEarthNet.uav[32] utilizationCountManeuversMaintenance 113
scalar OsgEarthNet.uav[32] utilizationCountChargeState 57
scalar OsgEarthNet.uav[32] utilizationCountOverdrawnAfterMission 1
scalar OsgEarthNet.uav[32] utilizationCountIdleState 57
scalar OsgEarthNet.uav[32] utilizationFail 0
scalar OsgEarthNet.uav[32] simulationTime 259200
scalar OsgEarthNet.uav[33] utilizationSecMission 22022.611565416
scalar OsgEarthNet.uav[33] utilizationSecMaintenance 23662.776854102
scalar OsgEarthNet.uav[33] utilizationSecCharge 168302.60158048
scalar OsgEarthNet.uav[33] utilizationSecIdle 45212.009
scalar OsgEarthNet.uav[33] utilizationEnergyMission 108026.14850998
scalar OsgEarthNet.uav[33] utilizationEnergyMaintenance 110722.0991745
scalar OsgEarthNet.uav[33] utilizationEnergyCharge 218855.34350586
scalar OsgEarthNet.uav[33] utilizationEnergyOverdrawMission 0
scalar OsgEarthNet.uav[33] utilizationEnergyOverdrawMaintenance 0
scalar OsgEarthNet.uav[33] utilizationCountMissions 51
scalar OsgEarthNet.uav[33] utilizationCountManeuversMission 761
scalar OsgEarthNet.uav[33] utilizationCountManeuversMaintenance 102
scalar OsgEarthNet.uav[33] utilizationCountChargeState 51
scalar OsgEarthNet.uav[33] utilizationCountOverdrawnAfterMission 0
scalar OsgEarthNet.uav[33] utilizationCountIdleState 51
scalar OsgEarthNet.uav[33] utilizationFail 0
scalar OsgEarthNet.uav[33] simulationTime 259200
scalar OsgEarthNet.uav[34] utilizationSecMission 27003.356685473
scalar OsgEarthNet.uav[34] utilizationSecMaintenance 24428.11565245
scalar OsgEarthNet.uav[34] utilizationSecCharge 186620
scalar OsgEarthNet.uav[34] utilizationSecIdle 21148.526662077
scalar OsgEarthNet.uav[34] utilizationEnergyMission 129609.30759048
scalar OsgEarthNet.uav[34] utilizationEnergyMaintenance 115063.30239012
scalar OsgEarthNet.uav[34] utilizationEnergyCharge 244592.8215332
scalar OsgEarthNet.uav[34] utilizationEnergyOverdrawMission 0
scalar OsgEarthNet.uav[34] utilizationEnergyOverdrawMaintenance 0
scalar OsgEarthNet.uav[34] utilizationCountMissions 56
scalar OsgEarthNet.uav[34] utilizationCountManeuversMission 803
scalar OsgEarthNet.uav[34] utilizationCountManeuversMaintenance 113
scalar OsgEarthNet.uav[34] utilizationCountChargeState 56
scalar OsgEarthNet.uav[34] utilizationCountOverdrawnAfterMission 0
scalar OsgEarthNet.uav[34] utilizationCountIdleState 57
scalar OsgEarthNet.uav[34] utilizationFail 0
scalar OsgEarthNet.uav[34] simulationTime 259200
scalar OsgEarthNet.uav[35] utilizationSecMission 14242.936462888
scalar OsgEarthNet.uav[35] utilizationSecMaintenance 11563.352537794
scalar OsgEarthNet.uav[35] utilizationSecCharge 90080.786221214
scalar OsgEarthNet.uav[35] utilizationSecIdle 143312.9237781
scalar OsgEarthNet.uav[35] utilizationEnergyMission 68251.269493103
scalar OsgEarthNet.uav[35] utilizationEnergyMaintenance 53887.104705811
scalar OsgEarthNet.uav[35] utilizationEnergyCharge 117770.70196533
scalar OsgEarthNet.uav[35] utilizationEnergyOverdrawMission 0
scalar OsgEarthNet.uav[35] utilizationEnergyOverdrawMaintenance 0
scalar OsgEarthNet.uav[35] utilizationCountMissions 28
scalar OsgEarthNet.uav[35] utilizationCountManeuversMission 370
scalar OsgEarthNet.uav[35] utilizationCountManeuversMaintenance 56
scalar OsgEarthNet.uav[35] utilizationCountChargeState 28
scalar OsgEarthNet.uav[35] utilizationCountOverdrawnAfterMission 0
scalar OsgEarthNet.uav[35] utilizationCountIdleState 28
scalar OsgEarthNet.uav[35] utilizationFail 0
scalar OsgEarthNet.uav[35] simulationTime 259200
scalar OsgEarthNet.uav[36] utilizationSecMission 24482.660009335
scalar OsgEarthNet.uav[36] utilizationSecMaintenance 20230.85797213
scalar OsgEarthNet.uav[36] utilizationSecCharge 160101.8365936
scalar OsgEarthNet.uav[36] utilizationSecIdle 54384.64442494
scalar OsgEarthNet.uav[36] utilizationEnergyMission 116504.84666443
scalar OsgEarthNet.uav[36] utilizationEnergyMaintenance 94330.783912659
scalar OsgEarthNet.uav[36] utilizationEnergyCharge 209267.69470215
scalar OsgEarthNet.uav[36] utilizationEnergyOverdrawMission 0
scalar OsgEarthNet.uav[36] utilizationEnergyOverdrawMaintenance 0
scalar OsgEarthNet.uav[36] utilizationCountMissions 49
scalar OsgEarthNet.uav[36] utilizationCountManeuversMission 736
scalar OsgEarthNet.uav[36] utilizationCountManeuversMaintenance 98
scalar OsgEarthNet.uav[36] utilizationCountChargeState 49
scalar OsgEarthNet.uav[36] utilizationCountOverdrawnAfterMission 0
scalar OsgEarthNet.uav[36] utilizationCountIdleState 49
scalar OsgEarthNet.uav[36] utilizationFail 0
scalar OsgEarthNet.uav[36] simulationTime 259200
scalar OsgEarthNet.uav[37] utilizationSecMission 19629.984856353
scalar OsgEarthNet.uav[37] utilizationSecMaintenance 19625.675958357
scalar OsgEarthNet.uav[37] utilizationSecCharge 143100
scalar OsgEarthNet.uav[37] utilizationSecIdle 76844.33818529
scalar OsgEarthNet.uav[37] utilizationEnergyMission 94406.119949341
scalar OsgEarthNet.uav[37] utilizationEnergyMaintenance 91398.008840236
scalar OsgEarthNet.uav[37] utilizationEnergyCharge 187024.90966797
scalar OsgEarthNet.uav[37] utilizationEnergyOverdrawMission 0
scalar OsgEarthNet.uav[37] utilizationEnergyOverdrawMaintenance 0
scalar OsgEarthNet.uav[37] utilizationCountMissions 43
scalar OsgEarthNet.uav[37] utilizationCountManeuversMission 682
scalar OsgEarthNet.uav[37] utilizationCountManeuversMaintenance 87
scalar OsgEarthNet.uav[37] utilizationCountChargeState 43
scalar OsgEarthNet.uav[37] utilizationCountOverdrawnAfterMission 0
scalar OsgEarthNet.uav[37] utilizationCountIdleState 44
scalar OsgEarthNet.uav[37] utilizationFail 0
scalar OsgEarthNet.uav[37] simulationTime 259200
scalar OsgEarthNet.uav[38] utilizationSecMission 22775.959528042
scalar OsgEarthNet.uav[38] utilizationSecMaintenance 24412.120273731
scalar OsgEarthNet.uav[38] utilizationSecCharge 171239.91319823
scalar OsgEarthNet.uav[38] utilizationSecIdle 40772.006
scalar OsgEarthNet.uav[38] utilizationEnergyMission 112373.26932907
scalar OsgEarthNet.uav[38] utilizationEnergyMaintenance 113333.78531265
scalar OsgEarthNet.uav[38] utilizationEnergyCharge 224524.37695312
scalar OsgEarthNet.uav[38] utilizationEnergyOverdrawMission 0
scalar OsgEarthNet.uav[38] utilizationEnergyOverdrawMaintenance 0
scalar OsgEarthNet.uav[38] utilizationCountMissions 52
scalar OsgEarthNet.uav[38] utilizationCountManeuversMission 752
scalar OsgEarthNet.uav[38] utilizationCountManeuversMaintenance 104
scalar OsgEarthNet.uav[38] utilizationCountChargeState 52
scalar OsgEarthNet.uav[38] utilizationCountOverdrawnAfterMission 0
scalar OsgEarthNet.uav[38] utilizationCountIdleState 52
scalar OsgEarthNet.uav[38] utilizationFail 0
scalar OsgEarthNet.uav[38] simulationTime 259200
scalar OsgEarthNet.uav[39] utilizationSecMission 838.29059458083
scalar OsgEarthNet.uav[39] utilizationSecMaintenance 985.11070813342
scalar OsgEarthNet.uav[39] utilizationSecCharge 6870
scalar OsgEarthNet.uav[39] utilizationSecIdle 250506.59769729
scalar OsgEarthNet.uav[39] utilizationEnergyMission 4013.3489952087
scalar OsgEarthNet.uav[39] utilizationEnergyMaintenance 4886.9752044678
scalar OsgEarthNet.uav[39] utilizationEnergyCharge 9121.3486328125
scalar OsgEarthNet.uav[39] utilizationEnergyOverdrawMission 0
scalar OsgEarthNet.uav[39] utilizationEnergyOverdrawMaintenance 0
scalar OsgEarthNet.uav[39] utilizationCountMissions 2
scalar OsgEarthNet.uav[39] utilizationCountManeuversMission 22
scalar OsgEarthNet.uav[39] utilizationCountManeuversMaintenance 4
scalar OsgEarthNet.uav[39] utilizationCountChargeState 2
scalar OsgEarthNet.uav[39] utilizationCountOverdrawnAfterMission 0
scalar OsgEarthNet.uav[39] utilizationCountIdleState 3
scalar OsgEarthNet.uav[39] utilizationFail 0
scalar OsgEarthNet.uav[39] simulationTime 259200
scalar OsgEarthNet.uav[40] utilizationSecMission 1647.1741082606
scalar OsgEarthNet.uav[40] utilizationSecMaintenance 935.00258132649
scalar OsgEarthNet.uav[40] utilizationSecCharge 9590
scalar OsgEarthNet.uav[40] utilizationSecIdle 247027.82231041
scalar OsgEarthNet.uav[40] utilizationEnergyMission 8153.7450485229
scalar OsgEarthNet.uav[40] utilizationEnergyMaintenance 4609.8269805908
scalar OsgEarthNet.uav[40] utilizationEnergyCharge 12371.819091797
scalar OsgEarthNet.uav[40] utilizationEnergyOverdrawMission 0
scalar OsgEarthNet.uav[40] utilizationEnergyOverdrawMaintenance 0
scalar OsgEarthNet.uav[40] utilizationCountMissions 3
scalar OsgEarthNet.uav[40] utilizationCountManeuversMission 52
scalar OsgEarthNet.uav[40] utilizationCountManeuversMaintenance 6
scalar OsgEarthNet.uav[40] utilizationCountChargeState 3
scalar OsgEarthNet.uav[40] utilizationCountOverdrawnAfterMission 0
scalar OsgEarthNet.uav[40] utilizationCountIdleState 4
scalar OsgEarthNet.uav[40] utilizationFail 0
scalar OsgEarthNet.uav[40] simulationTime 259200
scalar OsgEarthNet.uav[41] utilizationSecMission 25203.480451185
scalar OsgEarthNet.uav[41] utilizationSecMaintenance 25053.136283021
scalar OsgEarthNet.uav[41] utilizationSecCharge 181081.37926579
scalar OsgEarthNet.uav[41] utilizationSecIdle 27862.003
scalar OsgEarthNet.uav[41] utilizationEnergyMission 122138.74942017
scalar OsgEarthNet.uav[41] utilizationEnergyMaintenance 115805.45324326
scalar OsgEarthNet.uav[41] utilizationEnergyCharge 237602.98999023
scalar OsgEarthNet.uav[41] utilizationEnergyOverdrawMission 0
scalar OsgEarthNet.uav[41] utilizationEnergyOverdrawMaintenance 58.744968414307
scalar OsgEarthNet.uav[41] utilizationCountMissions 55
scalar OsgEarthNet.uav[41] utilizationCountManeuversMission 775
scalar OsgEarthNet.uav[41] utilizationCountManeuversMaintenance 110
scalar OsgEarthNet.uav[41] utilizationCountChargeState 55
scalar OsgEarthNet.uav[41] utilizationCountOverdrawnAfterMission 1
scalar OsgEarthNet.uav[41] utilizationCountIdleState 55
scalar OsgEarthNet.uav[41] utilizationFail 0
scalar OsgEarthNet.uav[41] simulationTime 259200
scalar OsgEarthNet.uav[42] utilizationSecMission 24240.322432422
scalar OsgEarthNet.uav[42] utilizationSecMaintenance 21033.6483105
scalar OsgEarthNet.uav[42] utilizationSecCharge 160744.02025708
scalar OsgEarthNet.uav[42] utilizationSecIdle 53182.008
scalar OsgEarthNet.uav[42] utilizationEnergyMission 116398.43145752
scalar OsgEarthNet.uav[42] utilizationEnergyMaintenance 97337.229343414
scalar OsgEarthNet.uav[42] utilizationEnergyCharge 210796.96105957
scalar OsgEarthNet.uav[42] utilizationEnergyOverdrawMission 0
scalar OsgEarthNet.uav[42] utilizationEnergyOverdrawMaintenance 0
scalar OsgEarthNet.uav[42] utilizationCountMissions 49
scalar OsgEarthNet.uav[42] utilizationCountManeuversMission 722
scalar OsgEarthNet.uav[42] utilizationCountManeuversMaintenance 98
scalar OsgEarthNet.uav[42] utilizationCountChargeState 49
scalar OsgEarthNet.uav[42] utilizationCountOverdrawnAfterMission 0
scalar OsgEarthNet.uav[42] utilizationCountIdleState 49
scalar OsgEarthNet.uav[42] utilizationFail 0
scalar OsgEarthNet.uav[42] simulationTime 259200
scalar OsgEarthNet.uav[43] utilizationSecMission 27797.277342351
scalar OsgEarthNet.uav[43] utilizationSecMaintenance 23823.270749931
scalar OsgEarthNet.uav[43] utilizationSecCharge 185257.93724677
scalar OsgEarthNet.uav[43] utilizationSecIdle 22321.51366095
scalar OsgEarthNet.uav[43] utilizationEnergyMission 132505.42731476
scalar OsgEarthNet.uav[43] utilizationEnergyMaintenance 110778.09994125
scalar OsgEarthNet.uav[43] utilizationEnergyCharge 243057.66455078
scalar OsgEarthNet.uav[43] utilizationEnergyOverdrawMission 0
scalar OsgEarthNet.uav[43] utilizationEnergyOverdrawMaintenance 0
scalar OsgEarthNet.uav[43] utilizationCountMissions 56
scalar OsgEarthNet.uav[43] utilizationCountManeuversMission 806
scalar OsgEarthNet.uav[43] utilizationCountManeuversMaintenance 112
scalar OsgEarthNet.uav[43] utilizationCountChargeState 56
scalar OsgEarthNet.uav[43] utilizationCountOverdrawnAfterMission 0
scalar OsgEarthNet.uav[43] utilizationCountIdleState 56
scalar OsgEarthNet.uav[43] utilizationFail 0
scalar OsgEarthNet.uav[43] simulationTime 259200
scalar OsgEarthNet.uav[44] utilizationSecMission 17874.299437071
scalar OsgEarthNet.uav[44] utilizationSecMaintenance 14702.859165477
scalar OsgEarthNet.uav[44] utilizationSecCharge 115790.83139745
scalar OsgEarthNet.uav[44] utilizationSecIdle 110832.009
scalar OsgEarthNet.uav[44] utilizationEnergyMission 85034.142894745
scalar OsgEarthNet.uav[44] utilizationEnergyMaintenance 67203.330566406
scalar OsgEarthNet.uav[44] utilizationEnergyCharge 152786.01928711
scalar OsgEarthNet.uav[44] utilizationEnergyOverdrawMission 0
scalar OsgEarthNet.uav[44] utilizationEnergyOverdrawMaintenance 0
scalar OsgEarthNet.uav[44] utilizationCountMissions 35
scalar OsgEarthNet.uav[44] utilizationCountManeuversMission 506
scalar OsgEarthNet.uav[44] utilizationCountManeuversMaintenance 70
scalar OsgEarthNet.uav[44] utilizationCountChargeState 35
scalar OsgEarthNet.uav[44] utilizationCountOverdrawnAfterMission 0
scalar OsgEarthNet.uav[44] utilizationCountIdleState 35
scalar OsgEarthNet.uav[44] utilizationFail 0
scalar OsgEarthNet.uav[44] simulationTime 259200
scalar OsgEarthNet.uav[45] utilizationSecMission 25349.548024862
scalar OsgEarthNet.uav[45] utilizationSecMaintenance 23804.156656516
scalar OsgEarthNet.uav[45] utilizationSecCharge 179004.29131862
scalar OsgEarthNet.uav[45] utilizationSecIdle 31042.003
scalar OsgEarthNet.uav[45] utilizationEnergyMission 121314.08612823
scalar OsgEarthNet.uav[45] utilizationEnergyMaintenance 111353.43649673
scalar OsgEarthNet.uav[45] utilizationEnergyCharge 234549.70898438
scalar OsgEarthNet.uav[45] utilizationEnergyOverdrawMission 0
scalar OsgEarthNet.uav[45] utilizationEnergyOverdrawMaintenance 0
scalar OsgEarthNet.uav[45] utilizationCountMissions 54
scalar OsgEarthNet.uav[45] utilizationCountManeuversMission 763
scalar OsgEarthNet.uav[45] utilizationCountManeuversMaintenance 108
scalar OsgEarthNet.uav[45] utilizationCountChargeState 54
scalar OsgEarthNet.uav[45] utilizationCountOverdrawnAfterMission 0
scalar OsgEarthNet.uav[45] utilizationCountIdleState 54
scalar OsgEarthNet.uav[45] utilizationFail 0
scalar OsgEarthNet.uav[45] simulationTime 259200
scalar OsgEarthNet.uav[46] utilizationSecMission 27071.177948268
scalar OsgEarthNet.uav[46] utilizationSecMaintenance 23685.915952401
scalar OsgEarthNet.uav[46] utilizationSecCharge 180570.13913098
scalar OsgEarthNet.uav[46] utilizationSecIdle 27872.765968356
scalar OsgEarthNet.uav[46] utilizationEnergyMission 129763.80634308
scalar OsgEarthNet.uav[46] utilizationEnergyMaintenance 111793.37542343
scalar OsgEarthNet.uav[46] utilizationEnergyCharge 237874.51391602
scalar OsgEarthNet.uav[46] utilizationEnergyOverdrawMission 0
scalar OsgEarthNet.uav[46] utilizationEnergyOverdrawMaintenance 265.58111572266
scalar OsgEarthNet.uav[46] utilizationCountMissions 54
scalar OsgEarthNet.uav[46] utilizationCountManeuversMission 756
scalar OsgEarthNet.uav[46] utilizationCountManeuversMaintenance 108
scalar OsgEarthNet.uav[46] utilizationCountChargeState 54
scalar OsgEarthNet.uav[46] utilizationCountOverdrawnAfterMission 1
scalar OsgEarthNet.uav[46] utilizationCountIdleState 54
scalar OsgEarthNet.uav[46] utilizationFail 0
scalar OsgEarthNet.uav[46] simulationTime 259200
scalar OsgEarthNet.uav[47] utilizationSecMission 3463.1657382229
scalar OsgEarthNet.uav[47] utilizationSecMaintenance 2937.1492319855
scalar OsgEarthNet.uav[47] utilizationSecCharge 23270
scalar OsgEarthNet.uav[47] utilizationSecIdle 229529.68402979
scalar OsgEarthNet.uav[47] utilizationEnergyMission 16876.661842346
scalar OsgEarthNet.uav[47] utilizationEnergyMaintenance 13563.891414642
scalar OsgEarthNet.uav[47] utilizationEnergyCharge 30650.468261719
scalar OsgEarthNet.uav[47] utilizationEnergyOverdrawMission 0
scalar OsgEarthNet.uav[47] utilizationEnergyOverdrawMaintenance 0
scalar OsgEarthNet.uav[47] utilizationCountMissions 7
scalar OsgEarthNet.uav[47] utilizationCountManeuversMission 118
scalar OsgEarthNet.uav[47] utilizationCountManeuversMaintenance 14
scalar OsgEarthNet.uav[47] utilizationCountChargeState 7
scalar OsgEarthNet.uav[47] utilizationCountOverdrawnAfterMission 0
scalar OsgEarthNet.uav[47] utilizationCountIdleState 7
scalar OsgEarthNet.uav[47] utilizationFail 0
scalar OsgEarthNet.uav[47] simulationTime 259200
scalar OsgEarthNet.uav[48] utilizationSecMission 24106.7930749
scalar OsgEarthNet.uav[48] utilizationSecMaintenance 22192.586619329
scalar OsgEarthNet.uav[48] utilizationSecCharge 167430
scalar OsgEarthNet.uav[48] utilizationSecIdle 45470.619305772
scalar OsgEarthNet.uav[48] utilizationEnergyMission 116530.07507706
scalar OsgEarthNet.uav[48] utilizationEnergyMaintenance 102517.71047592
scalar OsgEarthNet.uav[48] utilizationEnergyCharge 218996.15771484
scalar OsgEarthNet.uav[48] utilizationEnergyOverdrawMission 0
scalar OsgEarthNet.uav[48] utilizationEnergyOverdrawMaintenance 0
scalar OsgEarthNet.uav[48] utilizationCountMissions 50
scalar OsgEarthNet.uav[48] utilizationCountManeuversMission 678
scalar OsgEarthNet.uav[48] utilizationCountManeuversMaintenance 100
scalar OsgEarthNet.uav[48] utilizationCountChargeState 50
scalar OsgEarthNet.uav[48] utilizationCountOverdrawnAfterMission 0
scalar OsgEarthNet.uav[48] utilizationCountIdleState 51
scalar OsgEarthNet.uav[48] utilizationFail 0
scalar OsgEarthNet.uav[48] simulationTime 259200
scalar OsgEarthNet.uav[49] utilizationSecMission 21814.973922014
scalar OsgEarthNet.uav[49] utilizationSecMaintenance 24573.887341131
scalar OsgEarthNet.uav[49] utilizationSecCharge 168700
scalar OsgEarthNet.uav[49] utilizationSecIdle 44111.137736855
scalar OsgEarthNet.uav[49] utilizationEnergyMission 106146.66612244
scalar OsgEarthNet.uav[49] utilizationEnergyMaintenance 114331.97320175
scalar OsgEarthNet.uav[49] utilizationEnergyCharge 220093.88232422
scalar OsgEarthNet.uav[49] utilizationEnergyOverdrawMission 0
scalar OsgEarthNet.uav[49] utilizationEnergyOverdrawMaintenance 287.20431518555
scalar OsgEarthNet.uav[49] utilizationCountMissions 51
scalar OsgEarthNet.uav[49] utilizationCountManeuversMission 724
scalar OsgEarthNet.uav[49] utilizationCountManeuversMaintenance 102
scalar OsgEarthNet.uav[49] utilizationCountChargeState 51
scalar OsgEarthNet.uav[49] utilizationCountOverdrawnAfterMission 1
scalar OsgEarthNet.uav[49] utilizationCountIdleState 52
scalar OsgEarthNet.uav[49] utilizationFail 0
scalar OsgEarthNet.uav[49] simulationTime 259200
scalar OsgEarthNet.uav[50] utilizationSecMission 7521.5012995131
scalar OsgEarthNet.uav[50] utilizationSecMaintenance 6937.4131681102
scalar OsgEarthNet.uav[50] utilizationSecCharge 52900
scalar OsgEarthNet.uav[50] utilizationSecIdle 191841.08453238
scalar OsgEarthNet.uav[50] utilizationEnergyMission 36255.865188599
scalar OsgEarthNet.uav[50] utilizationEnergyMaintenance 32549.799953461
scalar OsgEarthNet.uav[50] utilizationEnergyCharge 68862.410888672
scalar OsgEarthNet.uav[50] utilizationEnergyOverdrawMission 0
scalar OsgEarthNet.uav[50] utilizationEnergyOverdrawMaintenance 0
scalar OsgEarthNet.uav[50] utilizationCountMissions 16
scalar OsgEarthNet.uav[50] utilizationCountManeuversMission 225
scalar OsgEarthNet.uav[50] utilizationCountManeuversMaintenance 32
scalar OsgEarthNet.uav[50] utilizationCountChargeState 16
scalar OsgEarthNet.uav[50] utilizationCountOverdrawnAfterMission 0
scalar OsgEarthNet.uav[50] utilizationCountIdleState 16
scalar OsgEarthNet.uav[50] utilizationFail 0
scalar OsgEarthNet.uav[50] simulationTime 259200
scalar OsgEarthNet.uav[51] utilizationSecMission 26982.704021996
scalar OsgEarthNet.uav[51] utilizationSecMaintenance 24722.048641052
scalar OsgEarthNet.uav[51] utilizationSecCharge 185418.56552906
scalar OsgEarthNet.uav[51] utilizationSecIdle 22076.680807888
scalar OsgEarthNet.uav[51] utilizationEnergyMission 128716.37790298
scalar OsgEarthNet.uav[51] utilizationEnergyMaintenance 115048.60318756
scalar OsgEarthNet.uav[51] utilizationEnergyCharge 243391.84423828
scalar OsgEarthNet.uav[51] utilizationEnergyOverdrawMission 0
scalar OsgEarthNet.uav[51] utilizationEnergyOverdrawMaintenance 0
scalar OsgEarthNet.uav[51] utilizationCountMissions 55
scalar OsgEarthNet.uav[51] utilizationCountManeuversMission 703
scalar OsgEarthNet.uav[51] utilizationCountManeuversMaintenance 110
scalar OsgEarthNet.uav[51] utilizationCountChargeState 55
scalar OsgEarthNet.uav[51] utilizationCountOverdrawnAfterMission 0
scalar OsgEarthNet.uav[51] utilizationCountIdleState 55
scalar OsgEarthNet.uav[51] utilizationFail 0
scalar OsgEarthNet.uav[51] simulationTime 259200
scalar OsgEarthNet.uav[52] utilizationSecMission 13760.005541322
scalar OsgEarthNet.uav[52] utilizationSecMaintenance 14081.013629003
scalar OsgEarthNet.uav[52] utilizationSecCharge 102510
scalar OsgEarthNet.uav[52] utilizationSecIdle 128848.97982968
scalar OsgEarthNet.uav[52] utilizationEnergyMission 67696.227092743
scalar OsgEarthNet.uav[52] utilizationEnergyMaintenance 64872.84645462
scalar OsgEarthNet.uav[52] utilizationEnergyCharge 133581.61035156
scalar OsgEarthNet.uav[52] utilizationEnergyOverdrawMission 0
scalar OsgEarthNet.uav[52] utilizationEnergyOverdrawMaintenance 0
scalar OsgEarthNet.uav[52] utilizationCountMissions 31
scalar OsgEarthNet.uav[52] utilizationCountManeuversMission 452
scalar OsgEarthNet.uav[52] utilizationCountManeuversMaintenance 62
scalar OsgEarthNet.uav[52] utilizationCountChargeState 31
scalar OsgEarthNet.uav[52] utilizationCountOverdrawnAfterMission 0
scalar OsgEarthNet.uav[52] utilizationCountIdleState 31
scalar OsgEarthNet.uav[52] utilizationFail 0
scalar OsgEarthNet.uav[52] simulationTime 259200
scalar OsgEarthNet.uav[53] utilizationSecMission 16373.743184621
scalar OsgEarthNet.uav[53] utilizationSecMaintenance 15501.522829503
scalar OsgEarthNet.uav[53] utilizationSecCharge 115149.95201284
scalar OsgEarthNet.uav[53] utilizationSecIdle 112174.78097303
scalar OsgEarthNet.uav[53] utilizationEnergyMission 79281.260417938
scalar OsgEarthNet.uav[53] utilizationEnergyMaintenance 72488.578258514
scalar OsgEarthNet.uav[53] utilizationEnergyCharge 151202.06640625
scalar OsgEarthNet.uav[53] utilizationEnergyOverdrawMission 0
scalar OsgEarthNet.uav[53] utilizationEnergyOverdrawMaintenance 0
scalar OsgEarthNet.uav[53] utilizationCountMissions 35
scalar OsgEarthNet.uav[53] utilizationCountManeuversMission 482
scalar OsgEarthNet.uav[53] utilizationCountManeuversMaintenance 70
scalar OsgEarthNet.uav[53] utilizationCountChargeState 35
scalar OsgEarthNet.uav[53] utilizationCountOverdrawnAfterMission 0
scalar OsgEarthNet.uav[53] utilizationCountIdleState 35
scalar OsgEarthNet.uav[53] utilizationFail 0
scalar OsgEarthNet.uav[53] simulationTime 259200
scalar OsgEarthNet.uav[54] utilizationSecMission 26533.778233527
scalar OsgEarthNet.uav[54] utilizationSecMaintenance 25470.775735448
scalar OsgEarthNet.uav[54] utilizationSecCharge 187393.44503103
scalar OsgEarthNet.uav[54] utilizationSecIdle 19802
scalar OsgEarthNet.uav[54] utilizationEnergyMission 128004.57764435
scalar OsgEarthNet.uav[54] utilizationEnergyMaintenance 118813.23451996
scalar OsgEarthNet.uav[54] utilizationEnergyCharge 246543.00195312
scalar OsgEarthNet.uav[54] utilizationEnergyOverdrawMission 0
scalar OsgEarthNet.uav[54] utilizationEnergyOverdrawMaintenance 0
scalar OsgEarthNet.uav[54] utilizationCountMissions 57
scalar OsgEarthNet.uav[54] utilizationCountManeuversMission 847
scalar OsgEarthNet.uav[54] utilizationCountManeuversMaintenance 113
scalar OsgEarthNet.uav[54] utilizationCountChargeState 57
scalar OsgEarthNet.uav[54] utilizationCountOverdrawnAfterMission 0
scalar OsgEarthNet.uav[54] utilizationCountIdleState 54
scalar OsgEarthNet.uav[54] utilizationFail 0
scalar OsgEarthNet.uav[54] simulationTime 259200
scalar OsgEarthNet.uav[55] utilizationSecMission 15279.330386789
scalar OsgEarthNet.uav[55] utilizationSecMaintenance 14734.423761037
scalar OsgEarthNet.uav[55] utilizationSecCharge 109180
scalar OsgEarthNet.uav[55] utilizationSecIdle 120006.24485217
scalar OsgEarthNet.uav[55] utilizationEnergyMission 74179.408355713
scalar OsgEarthNet.uav[55] utilizationEnergyMaintenance 69298.976089478
scalar OsgEarthNet.uav[55] utilizationEnergyCharge 142960.08398438
scalar OsgEarthNet.uav[55] utilizationEnergyOverdrawMission 0
scalar OsgEarthNet.uav[55] utilizationEnergyOverdrawMaintenance 0
scalar OsgEarthNet.uav[55] utilizationCountMissions 33
scalar OsgEarthNet.uav[55] utilizationCountManeuversMission 483
scalar OsgEarthNet.uav[55] utilizationCountManeuversMaintenance 66
scalar OsgEarthNet.uav[55] utilizationCountChargeState 33
scalar OsgEarthNet.uav[55] utilizationCountOverdrawnAfterMission 0
scalar OsgEarthNet.uav[55] utilizationCountIdleState 33
scalar OsgEarthNet.uav[55] utilizationFail 0
scalar OsgEarthNet.uav[55] simulationTime 259200
scalar OsgEarthNet.uav[56] utilizationSecMission 16425.322537364
scalar OsgEarthNet.uav[56] utilizationSecMaintenance 15972.636238936
scalar OsgEarthNet.uav[56] utilizationSecCharge 115940
scalar OsgEarthNet.uav[56] utilizationSecIdle 110862.0402237
scalar OsgEarthNet.uav[56] utilizationEnergyMission 78708.479633331
scalar OsgEarthNet.uav[56] utilizationEnergyMaintenance 73300.295810699
scalar OsgEarthNet.uav[56] utilizationEnergyCharge 151403.14501953
scalar OsgEarthNet.uav[56] utilizationEnergyOverdrawMission 0
scalar OsgEarthNet.uav[56] utilizationEnergyOverdrawMaintenance 0
scalar OsgEarthNet.uav[56] utilizationCountMissions 35
scalar OsgEarthNet.uav[56] utilizationCountManeuversMission 502
scalar OsgEarthNet.uav[56] utilizationCountManeuversMaintenance 70
scalar OsgEarthNet.uav[56] utilizationCountChargeState 35
scalar OsgEarthNet.uav[56] utilizationCountOverdrawnAfterMission 0
scalar OsgEarthNet.uav[56] utilizationCountIdleState 35
scalar OsgEarthNet.uav[56] utilizationFail 0
scalar OsgEarthNet.uav[56] simulationTime 259200
scalar OsgEarthNet.uav[57] utilizationSecMission 20537.268113506
scalar OsgEarthNet.uav[57] utilizationSecMaintenance 19845.098923676
scalar OsgEarthNet.uav[57] utilizationSecCharge 145860
scalar OsgEarthNet.uav[57] utilizationSecIdle 72957.631962818
scalar OsgEarthNet.uav[57] utilizationEnergyMission 98577.760246277
scalar OsgEarthNet.uav[57] utilizationEnergyMaintenance 92577.540424347
scalar OsgEarthNet.uav[57] utilizationEnergyCharge 192142.39111328
scalar OsgEarthNet.uav[57] utilizationEnergyOverdrawMission 0
scalar OsgEarthNet.uav[57] utilizationEnergyOverdrawMaintenance 0
scalar OsgEarthNet.uav[57] utilizationCountMissions 44
scalar OsgEarthNet.uav[57] utilizationCountManeuversMission 619
scalar OsgEarthNet.uav[57] utilizationCountManeuversMaintenance 88
scalar OsgEarthNet.uav[57] utilizationCountChargeState 44
scalar OsgEarthNet.uav[57] utilizationCountOverdrawnAfterMission 0
scalar OsgEarthNet.uav[57] utilizationCountIdleState 41
scalar OsgEarthNet.uav[57] utilizationFail 0
scalar OsgEarthNet.uav[57] simulationTime 259200
scalar OsgEarthNet.uav[58] utilizationSecMission 21589.227672319
scalar OsgEarthNet.uav[58] utilizationSecMaintenance 20923.174200593
scalar OsgEarthNet.uav[58] utilizationSecCharge 152450
scalar OsgEarthNet.uav[58] utilizationSecIdle 64237.597127088
scalar OsgEarthNet.uav[58] utilizationEnergyMission 102920.73129654
scalar OsgEarthNet.uav[58] utilizationEnergyMaintenance 97368.850605011
scalar OsgEarthNet.uav[58] utilizationEnergyCharge 200131.78222656
scalar OsgEarthNet.uav[58] utilizationEnergyOverdrawMission 0
scalar OsgEarthNet.uav[58] utilizationEnergyOverdrawMaintenance 177.91761779785
scalar OsgEarthNet.uav[58] utilizationCountMissions 46
scalar OsgEarthNet.uav[58] utilizationCountManeuversMission 617
scalar OsgEarthNet.uav[58] utilizationCountManeuversMaintenance 92
scalar OsgEarthNet.uav[58] utilizationCountChargeState 46
scalar OsgEarthNet.uav[58] utilizationCountOverdrawnAfterMission 1
scalar OsgEarthNet.uav[58] utilizationCountIdleState 44
scalar OsgEarthNet.uav[58] utilizationFail 0
scalar OsgEarthNet.uav[58] simulationTime 259200
scalar OsgEarthNet.uav[59] utilizationSecMission 28248.761288853
scalar OsgEarthNet.uav[59] utilizationSecMaintenance 23107.550513922
scalar OsgEarthNet.uav[59] utilizationSecCharge 185771.68519723
scalar OsgEarthNet.uav[59] utilizationSecIdle 22072.002
scalar OsgEarthNet.uav[59] utilizationEnergyMission 138222.52864838
scalar OsgEarthNet.uav[59] utilizationEnergyMaintenance 107787.20756912
scalar OsgEarthNet.uav[59] utilizationEnergyCharge 245170.38183594
scalar OsgEarthNet.uav[59] utilizationEnergyOverdrawMission 0
scalar OsgEarthNet.uav[59] utilizationEnergyOverdrawMaintenance 0
scalar OsgEarthNet.uav[59] utilizationCountMissions 56
scalar OsgEarthNet.uav[59] utilizationCountManeuversMission 876
scalar OsgEarthNet.uav[59] utilizationCountManeuversMaintenance 112
scalar OsgEarthNet.uav[59] utilizationCountChargeState 56
scalar OsgEarthNet.uav[59] utilizationCountOverdrawnAfterMission 0
scalar OsgEarthNet.uav[59] utilizationCountIdleState 50
scalar OsgEarthNet.uav[59] utilizationFail 0
scalar OsgEarthNet.uav[59] simulationTime 259200
scalar OsgEarthNet.uav[60] utilizationSecMission 17898.857648843
scalar OsgEarthNet.uav[60] utilizationSecMaintenance 20869.360376529
scalar OsgEarthNet.uav[60] utilizationSecCharge 140940
scalar OsgEarthNet.uav[60] utilizationSecIdle 79491.780974629
scalar OsgEarthNet.uav[60] utilizationEnergyMission 88646.105422974
scalar OsgEarthNet.uav[60] utilizationEnergyMaintenance 97644.597099304
scalar OsgEarthNet.uav[60] utilizationEnergyCharge 184489.01342773
scalar OsgEarthNet.uav[60] utilizationEnergyOverdrawMission 0
scalar OsgEarthNet.uav[60] utilizationEnergyOverdrawMaintenance 0
scalar OsgEarthNet.uav[60] utilizationCountMissions 43
scalar OsgEarthNet.uav[60] utilizationCountManeuversMission 617
scalar OsgEarthNet.uav[60] utilizationCountManeuversMaintenance 86
scalar OsgEarthNet.uav[60] utilizationCountChargeState 43
scalar OsgEarthNet.uav[60] utilizationCountOverdrawnAfterMission 0
scalar OsgEarthNet.uav[60] utilizationCountIdleState 40
scalar OsgEarthNet.uav[60] utilizationFail 0
scalar OsgEarthNet.uav[60] simulationTime 259200
scalar OsgEarthNet.uav[61] utilizationSecMission 25646.892176196
scalar OsgEarthNet.uav[61] utilizationSecMaintenance 25023.392938398
scalar OsgEarthNet.uav[61] utilizationSecCharge 181211.36127814
scalar OsgEarthNet.uav[61] utilizationSecIdle 27318.352607263
scalar OsgEarthNet.uav[61] utilizationEnergyMission 125373.81048584
scalar OsgEarthNet.uav[61] utilizationEnergyMaintenance 115519.58960724
scalar OsgEarthNet.uav[61] utilizationEnergyCharge 238985.59985352
scalar OsgEarthNet.uav[61] utilizationEnergyOverdrawMission 0
scalar OsgEarthNet.uav[61] utilizationEnergyOverdrawMaintenance 9.2891082763672
scalar OsgEarthNet.uav[61] utilizationCountMissions 55
scalar OsgEarthNet.uav[61] utilizationCountManeuversMission 797
scalar OsgEarthNet.uav[61] utilizationCountManeuversMaintenance 110
scalar OsgEarthNet.uav[61] utilizationCountChargeState 55
scalar OsgEarthNet.uav[61] utilizationCountOverdrawnAfterMission 1
scalar OsgEarthNet.uav[61] utilizationCountIdleState 51
scalar OsgEarthNet.uav[61] utilizationFail 0
scalar OsgEarthNet.uav[61] simulationTime 259200
scalar OsgEarthNet.uav[62] utilizationSecMission 25282.081094061
scalar OsgEarthNet.uav[62] utilizationSecMaintenance 23055.457812894
scalar OsgEarthNet.uav[62] utilizationSecCharge 174950
scalar OsgEarthNet.uav[62] utilizationSecIdle 35912.460093045
scalar OsgEarthNet.uav[62] utilizationEnergyMission 121624.73071671
scalar OsgEarthNet.uav[62] utilizationEnergyMaintenance 107014.36719131
scalar OsgEarthNet.uav[62] utilizationEnergyCharge 230014.77099609
scalar OsgEarthNet.uav[62] utilizationEnergyOverdrawMission 0
scalar OsgEarthNet.uav[62] utilizationEnergyOverdrawMaintenance 0
scalar OsgEarthNet.uav[62] utilizationCountMissions 53
scalar OsgEarthNet.uav[62] utilizationCountManeuversMission 762
scalar OsgEarthNet.uav[62] utilizationCountManeuversMaintenance 106
scalar OsgEarthNet.uav[62] utilizationCountChargeState 53
scalar OsgEarthNet.uav[62] utilizationCountOverdrawnAfterMission 0
scalar OsgEarthNet.uav[62] utilizationCountIdleState 48
scalar OsgEarthNet.uav[62] utilizationFail 0
scalar OsgEarthNet.uav[62] simulationTime 259200
scalar OsgEarthNet.uav[63] utilizationSecMission 22369.435621533
scalar OsgEarthNet.uav[63] utilizationSecMaintenance 21772.265703706
scalar OsgEarthNet.uav[63] utilizationSecCharge 157410
scalar OsgEarthNet.uav[63] utilizationSecIdle 57648.297674761
scalar OsgEarthNet.uav[63] utilizationEnergyMission 106682.72108841
scalar OsgEarthNet.uav[63] utilizationEnergyMaintenance 100875.64911652
scalar OsgEarthNet.uav[63] utilizationEnergyCharge 207701.47583008
scalar OsgEarthNet.uav[63] utilizationEnergyOverdrawMission 0
scalar OsgEarthNet.uav[63] utilizationEnergyOverdrawMaintenance 0
scalar OsgEarthNet.uav[63] utilizationCountMissions 48
scalar OsgEarthNet.uav[63] utilizationCountManeuversMission 697
scalar OsgEarthNet.uav[63] utilizationCountManeuversMaintenance 96
scalar OsgEarthNet.uav[63] utilizationCountChargeState 48
scalar OsgEarthNet.uav[63] utilizationCountOverdrawnAfterMission 0
scalar OsgEarthNet.uav[63] utilizationCountIdleState 40
scalar OsgEarthNet.uav[63] utilizationFail 0
scalar OsgEarthNet.uav[63] simulationTime 259200
scalar OsgEarthNet.uav[64] utilizationSecMission 24794.244055058
scalar OsgEarthNet.uav[64] utilizationSecMaintenance 23074.314757942
scalar OsgEarthNet.uav[64] utilizationSecCharge 170359.433187
scalar OsgEarthNet.uav[64] utilizationSecIdle 40972.007
scalar OsgEarthNet.uav[64] utilizationEnergyMission 119561.90839767
scalar OsgEarthNet.uav[64] utilizationEnergyMaintenance 108247.84274292
scalar OsgEarthNet.uav[64] utilizationEnergyCharge 226163.59985352
scalar OsgEarthNet.uav[64] utilizationEnergyOverdrawMission 0
scalar OsgEarthNet.uav[64] utilizationEnergyOverdrawMaintenance 350.89865112305
scalar OsgEarthNet.uav[64] utilizationCountMissions 52
scalar OsgEarthNet.uav[64] utilizationCountManeuversMission 747
scalar OsgEarthNet.uav[64] utilizationCountManeuversMaintenance 104
scalar OsgEarthNet.uav[64] utilizationCountChargeState 52
scalar OsgEarthNet.uav[64] utilizationCountOverdrawnAfterMission 1
scalar OsgEarthNet.uav[64] utilizationCountIdleState 44
scalar OsgEarthNet.uav[64] utilizationFail 0
scalar OsgEarthNet.uav[64] simulationTime 259200
scalar OsgEarthNet.uav[65] utilizationSecMission 22318.638120936
scalar OsgEarthNet.uav[65] utilizationSecMaintenance 24073.142432379
scalar OsgEarthNet.uav[65] utilizationSecCharge 167380
scalar OsgEarthNet.uav[65] utilizationSecIdle 45428.218446685
scalar OsgEarthNet.uav[65] utilizationEnergyMission 107879.37509155
scalar OsgEarthNet.uav[65] utilizationEnergyMaintenance 112646.12781143
[...]
scalar OsgEarthNet.uav[81] utilizationCountManeuversMission 895
scalar OsgEarthNet.uav[81] utilizationCountManeuversMaintenance 120
scalar OsgEarthNet.uav[81] utilizationCountChargeState 60
scalar OsgEarthNet.uav[81] utilizationCountOverdrawnAfterMission 1
scalar OsgEarthNet.uav[81] utilizationCountIdleState 30
scalar OsgEarthNet.uav[81] utilizationFail 0
scalar OsgEarthNet.uav[81] simulationTime 259200
scalar OsgEarthNet.uav[82] utilizationSecMission 28238.85013791
scalar OsgEarthNet.uav[82] utilizationSecMaintenance 27371.339706038
scalar OsgEarthNet.uav[82] utilizationSecCharge 195127.80915605
scalar OsgEarthNet.uav[82] utilizationSecIdle 8462
scalar OsgEarthNet.uav[82] utilizationEnergyMission 135575.78861237
scalar OsgEarthNet.uav[82] utilizationEnergyMaintenance 127512.69461823
scalar OsgEarthNet.uav[82] utilizationEnergyCharge 263092.23779297
scalar OsgEarthNet.uav[82] utilizationEnergyOverdrawMission 0
scalar OsgEarthNet.uav[82] utilizationEnergyOverdrawMaintenance 0
scalar OsgEarthNet.uav[82] utilizationCountMissions 60
scalar OsgEarthNet.uav[82] utilizationCountManeuversMission 830
scalar OsgEarthNet.uav[82] utilizationCountManeuversMaintenance 120
scalar OsgEarthNet.uav[82] utilizationCountChargeState 60
scalar OsgEarthNet.uav[82] utilizationCountOverdrawnAfterMission 0
scalar OsgEarthNet.uav[82] utilizationCountIdleState 30
scalar OsgEarthNet.uav[82] utilizationFail 0
scalar OsgEarthNet.uav[82] simulationTime 259200
scalar OsgEarthNet.uav[83] utilizationSecMission 25906.23637776
scalar OsgEarthNet.uav[83] utilizationSecMaintenance 29400.151604522
scalar OsgEarthNet.uav[83] utilizationSecCharge 192612.16360213
scalar OsgEarthNet.uav[83] utilizationSecIdle 11281.447415583
scalar OsgEarthNet.uav[83] utilizationEnergyMission 127890.80613327
scalar OsgEarthNet.uav[83] utilizationEnergyMaintenance 136724.26954651
scalar OsgEarthNet.uav[83] utilizationEnergyCharge 261956.27050781
scalar OsgEarthNet.uav[83] utilizationEnergyOverdrawMission 0
scalar OsgEarthNet.uav[83] utilizationEnergyOverdrawMaintenance 0
scalar OsgEarthNet.uav[83] utilizationCountMissions 61
scalar OsgEarthNet.uav[83] utilizationCountManeuversMission 870
scalar OsgEarthNet.uav[83] utilizationCountManeuversMaintenance 122
scalar OsgEarthNet.uav[83] utilizationCountChargeState 61
scalar OsgEarthNet.uav[83] utilizationCountOverdrawnAfterMission 0
scalar OsgEarthNet.uav[83] utilizationCountIdleState 20
scalar OsgEarthNet.uav[83] utilizationFail 0
scalar OsgEarthNet.uav[83] simulationTime 259200
scalar OsgEarthNet.uav[84] utilizationSecMission 28037.881980859
scalar OsgEarthNet.uav[84] utilizationSecMaintenance 28077.059161981
scalar OsgEarthNet.uav[84] utilizationSecCharge 196303.05685716
scalar OsgEarthNet.uav[84] utilizationSecIdle 6782.001
scalar OsgEarthNet.uav[84] utilizationEnergyMission 134378.01638031
scalar OsgEarthNet.uav[84] utilizationEnergyMaintenance 130285.1457901
scalar OsgEarthNet.uav[84] utilizationEnergyCharge 263838.71606445
scalar OsgEarthNet.uav[84] utilizationEnergyOverdrawMission 0
scalar OsgEarthNet.uav[84] utilizationEnergyOverdrawMaintenance 0
scalar OsgEarthNet.uav[84] utilizationCountMissions 61
scalar OsgEarthNet.uav[84] utilizationCountManeuversMission 790
scalar OsgEarthNet.uav[84] utilizationCountManeuversMaintenance 122
scalar OsgEarthNet.uav[84] utilizationCountChargeState 61
scalar OsgEarthNet.uav[84] utilizationCountOverdrawnAfterMission 0
scalar OsgEarthNet.uav[84] utilizationCountIdleState 27
scalar OsgEarthNet.uav[84] utilizationFail 0
scalar OsgEarthNet.uav[84] simulationTime 259200
scalar OsgEarthNet.uav[85] utilizationSecMission 28564.487428156
scalar OsgEarthNet.uav[85] utilizationSecMaintenance 26195.539802453
scalar OsgEarthNet.uav[85] utilizationSecCharge 194998.57328501
scalar OsgEarthNet.uav[85] utilizationSecIdle 9441.3984843856
scalar OsgEarthNet.uav[85] utilizationEnergyMission 136892.95698929
scalar OsgEarthNet.uav[85] utilizationEnergyMaintenance 122347.10919952
scalar OsgEarthNet.uav[85] utilizationEnergyCharge 260362.8659668
scalar OsgEarthNet.uav[85] utilizationEnergyOverdrawMission 0
scalar OsgEarthNet.uav[85] utilizationEnergyOverdrawMaintenance 0
scalar OsgEarthNet.uav[85] utilizationCountMissions 60
scalar OsgEarthNet.uav[85] utilizationCountManeuversMission 910
scalar OsgEarthNet.uav[85] utilizationCountManeuversMaintenance 120
scalar OsgEarthNet.uav[85] utilizationCountChargeState 60
scalar OsgEarthNet.uav[85] utilizationCountOverdrawnAfterMission 0
scalar OsgEarthNet.uav[85] utilizationCountIdleState 33
scalar OsgEarthNet.uav[85] utilizationFail 0
scalar OsgEarthNet.uav[85] simulationTime 259200
scalar OsgEarthNet.uav[86] utilizationSecMission 29433.174130495
scalar OsgEarthNet.uav[86] utilizationSecMaintenance 25918.436260166
scalar OsgEarthNet.uav[86] utilizationSecCharge 192766.38560934
scalar OsgEarthNet.uav[86] utilizationSecIdle 11082.003
scalar OsgEarthNet.uav[86] utilizationEnergyMission 143052.50988007
scalar OsgEarthNet.uav[86] utilizationEnergyMaintenance 118801.00690842
scalar OsgEarthNet.uav[86] utilizationEnergyCharge 257448.74731445
scalar OsgEarthNet.uav[86] utilizationEnergyOverdrawMission 0
scalar OsgEarthNet.uav[86] utilizationEnergyOverdrawMaintenance 0
scalar OsgEarthNet.uav[86] utilizationCountMissions 60
scalar OsgEarthNet.uav[86] utilizationCountManeuversMission 883
scalar OsgEarthNet.uav[86] utilizationCountManeuversMaintenance 120
scalar OsgEarthNet.uav[86] utilizationCountChargeState 60
scalar OsgEarthNet.uav[86] utilizationCountOverdrawnAfterMission 0
scalar OsgEarthNet.uav[86] utilizationCountIdleState 32
scalar OsgEarthNet.uav[86] utilizationFail 0
scalar OsgEarthNet.uav[86] simulationTime 259200
scalar OsgEarthNet.uav[87] utilizationSecMission 28369.543252765
scalar OsgEarthNet.uav[87] utilizationSecMaintenance 28308.450747235
scalar OsgEarthNet.uav[87] utilizationSecCharge 196660
scalar OsgEarthNet.uav[87] utilizationSecIdle 5862.005
scalar OsgEarthNet.uav[87] utilizationEnergyMission 138824.16238403
scalar OsgEarthNet.uav[87] utilizationEnergyMaintenance 131075.42604075
scalar OsgEarthNet.uav[87] utilizationEnergyCharge 266351.90722656
scalar OsgEarthNet.uav[87] utilizationEnergyOverdrawMission 0
scalar OsgEarthNet.uav[87] utilizationEnergyOverdrawMaintenance 0
scalar OsgEarthNet.uav[87] utilizationCountMissions 62
scalar OsgEarthNet.uav[87] utilizationCountManeuversMission 930
scalar OsgEarthNet.uav[87] utilizationCountManeuversMaintenance 125
scalar OsgEarthNet.uav[87] utilizationCountChargeState 62
scalar OsgEarthNet.uav[87] utilizationCountOverdrawnAfterMission 0
scalar OsgEarthNet.uav[87] utilizationCountIdleState 17
scalar OsgEarthNet.uav[87] utilizationFail 0
scalar OsgEarthNet.uav[87] simulationTime 259200
scalar OsgEarthNet.uav[88] utilizationSecMission 26593.760560535
scalar OsgEarthNet.uav[88] utilizationSecMaintenance 29881.555061631
scalar OsgEarthNet.uav[88] utilizationSecCharge 195272.67837783
scalar OsgEarthNet.uav[88] utilizationSecIdle 7452.005
scalar OsgEarthNet.uav[88] utilizationEnergyMission 129724.26028824
scalar OsgEarthNet.uav[88] utilizationEnergyMaintenance 136495.72963715
scalar OsgEarthNet.uav[88] utilizationEnergyCharge 262572.07312012
scalar OsgEarthNet.uav[88] utilizationEnergyOverdrawMission 0
scalar OsgEarthNet.uav[88] utilizationEnergyOverdrawMaintenance 0
scalar OsgEarthNet.uav[88] utilizationCountMissions 62
scalar OsgEarthNet.uav[88] utilizationCountManeuversMission 911
scalar OsgEarthNet.uav[88] utilizationCountManeuversMaintenance 124
scalar OsgEarthNet.uav[88] utilizationCountChargeState 62
scalar OsgEarthNet.uav[88] utilizationCountOverdrawnAfterMission 0
scalar OsgEarthNet.uav[88] utilizationCountIdleState 25
scalar OsgEarthNet.uav[88] utilizationFail 0
scalar OsgEarthNet.uav[88] simulationTime 259200
scalar OsgEarthNet.uav[89] utilizationSecMission 26641.423324295
scalar OsgEarthNet.uav[89] utilizationSecMaintenance 29252.402636393
scalar OsgEarthNet.uav[89] utilizationSecCharge 195823.41109924
scalar OsgEarthNet.uav[89] utilizationSecIdle 7482.7619400731
scalar OsgEarthNet.uav[89] utilizationEnergyMission 130661.72921753
scalar OsgEarthNet.uav[89] utilizationEnergyMaintenance 136489.93877411
scalar OsgEarthNet.uav[89] utilizationEnergyCharge 266666.98144531
scalar OsgEarthNet.uav[89] utilizationEnergyOverdrawMission 0
scalar OsgEarthNet.uav[89] utilizationEnergyOverdrawMaintenance 0
scalar OsgEarthNet.uav[89] utilizationCountMissions 62
scalar OsgEarthNet.uav[89] utilizationCountManeuversMission 916
scalar OsgEarthNet.uav[89] utilizationCountManeuversMaintenance 124
scalar OsgEarthNet.uav[89] utilizationCountChargeState 62
scalar OsgEarthNet.uav[89] utilizationCountOverdrawnAfterMission 0
scalar OsgEarthNet.uav[89] utilizationCountIdleState 18
scalar OsgEarthNet.uav[89] utilizationFail 0
scalar OsgEarthNet.uav[89] simulationTime 259200
scalar OsgEarthNet.uav[90] utilizationSecMission 25964.544231695
scalar OsgEarthNet.uav[90] utilizationSecMaintenance 29384.015536614
scalar OsgEarthNet.uav[90] utilizationSecCharge 191844.27169913
scalar OsgEarthNet.uav[90] utilizationSecIdle 12007.16753256
scalar OsgEarthNet.uav[90] utilizationEnergyMission 126494.04063034
scalar OsgEarthNet.uav[90] utilizationEnergyMaintenance 137335.5514183
scalar OsgEarthNet.uav[90] utilizationEnergyCharge 260070.112854
scalar OsgEarthNet.uav[90] utilizationEnergyOverdrawMission 0
scalar OsgEarthNet.uav[90] utilizationEnergyOverdrawMaintenance 0
scalar OsgEarthNet.uav[90] utilizationCountMissions 62
scalar OsgEarthNet.uav[90] utilizationCountManeuversMission 803
scalar OsgEarthNet.uav[90] utilizationCountManeuversMaintenance 124
scalar OsgEarthNet.uav[90] utilizationCountChargeState 62
scalar OsgEarthNet.uav[90] utilizationCountOverdrawnAfterMission 0
scalar OsgEarthNet.uav[90] utilizationCountIdleState 22
scalar OsgEarthNet.uav[90] utilizationFail 0
scalar OsgEarthNet.uav[90] simulationTime 259200
scalar OsgEarthNet.uav[91] utilizationSecMission 25903.58485113
scalar OsgEarthNet.uav[91] utilizationSecMaintenance 30386.582588336
scalar OsgEarthNet.uav[91] utilizationSecCharge 194244.38547184
scalar OsgEarthNet.uav[91] utilizationSecIdle 8665.4460886909
scalar OsgEarthNet.uav[91] utilizationEnergyMission 124827.65377808
scalar OsgEarthNet.uav[91] utilizationEnergyMaintenance 141697.24612427
scalar OsgEarthNet.uav[91] utilizationEnergyCharge 262795.09216309
scalar OsgEarthNet.uav[91] utilizationEnergyOverdrawMission 0
scalar OsgEarthNet.uav[91] utilizationEnergyOverdrawMaintenance 46.858024597168
scalar OsgEarthNet.uav[91] utilizationCountMissions 62
scalar OsgEarthNet.uav[91] utilizationCountManeuversMission 833
scalar OsgEarthNet.uav[91] utilizationCountManeuversMaintenance 124
scalar OsgEarthNet.uav[91] utilizationCountChargeState 62
scalar OsgEarthNet.uav[91] utilizationCountOverdrawnAfterMission 1
scalar OsgEarthNet.uav[91] utilizationCountIdleState 23
scalar OsgEarthNet.uav[91] utilizationFail 0
scalar OsgEarthNet.uav[91] simulationTime 259200
scalar OsgEarthNet.uav[92] utilizationSecMission 27417.441753471
scalar OsgEarthNet.uav[92] utilizationSecMaintenance 28715.730739242
scalar OsgEarthNet.uav[92] utilizationSecCharge 197694.82350729
scalar OsgEarthNet.uav[92] utilizationSecIdle 5372.003
scalar OsgEarthNet.uav[92] utilizationEnergyMission 135608.38028336
scalar OsgEarthNet.uav[92] utilizationEnergyMaintenance 133747.77742004
scalar OsgEarthNet.uav[92] utilizationEnergyCharge 267053.40319824
scalar OsgEarthNet.uav[92] utilizationEnergyOverdrawMission 0
scalar OsgEarthNet.uav[92] utilizationEnergyOverdrawMaintenance 0
scalar OsgEarthNet.uav[92] utilizationCountMissions 63
scalar OsgEarthNet.uav[92] utilizationCountManeuversMission 975
scalar OsgEarthNet.uav[92] utilizationCountManeuversMaintenance 126
scalar OsgEarthNet.uav[92] utilizationCountChargeState 63
scalar OsgEarthNet.uav[92] utilizationCountOverdrawnAfterMission 0
scalar OsgEarthNet.uav[92] utilizationCountIdleState 19
scalar OsgEarthNet.uav[92] utilizationFail 0
scalar OsgEarthNet.uav[92] simulationTime 259200
scalar OsgEarthNet.uav[93] utilizationSecMission 29238.715504471
scalar OsgEarthNet.uav[93] utilizationSecMaintenance 26350.521000908
scalar OsgEarthNet.uav[93] utilizationSecCharge 194299.80923896
scalar OsgEarthNet.uav[93] utilizationSecIdle 9310.9532556647
scalar OsgEarthNet.uav[93] utilizationEnergyMission 141335.09130096
scalar OsgEarthNet.uav[93] utilizationEnergyMaintenance 122319.09296036
scalar OsgEarthNet.uav[93] utilizationEnergyCharge 262008.12841797
scalar OsgEarthNet.uav[93] utilizationEnergyOverdrawMission 0
scalar OsgEarthNet.uav[93] utilizationEnergyOverdrawMaintenance 0
scalar OsgEarthNet.uav[93] utilizationCountMissions 61
scalar OsgEarthNet.uav[93] utilizationCountManeuversMission 880
scalar OsgEarthNet.uav[93] utilizationCountManeuversMaintenance 122
scalar OsgEarthNet.uav[93] utilizationCountChargeState 61
scalar OsgEarthNet.uav[93] utilizationCountOverdrawnAfterMission 0
scalar OsgEarthNet.uav[93] utilizationCountIdleState 25
scalar OsgEarthNet.uav[93] utilizationFail 0
scalar OsgEarthNet.uav[93] simulationTime 259200
scalar OsgEarthNet.uav[94] utilizationSecMission 26009.556045075
scalar OsgEarthNet.uav[94] utilizationSecMaintenance 30602.374994489
scalar OsgEarthNet.uav[94] utilizationSecCharge 196055.98075915
scalar OsgEarthNet.uav[94] utilizationSecIdle 6532.0872012843
scalar OsgEarthNet.uav[94] utilizationEnergyMission 126032.18471527
scalar OsgEarthNet.uav[94] utilizationEnergyMaintenance 142478.20357513
scalar OsgEarthNet.uav[94] utilizationEnergyCharge 266604.78491211
scalar OsgEarthNet.uav[94] utilizationEnergyOverdrawMission 0
scalar OsgEarthNet.uav[94] utilizationEnergyOverdrawMaintenance 0
scalar OsgEarthNet.uav[94] utilizationCountMissions 63
scalar OsgEarthNet.uav[94] utilizationCountManeuversMission 833
scalar OsgEarthNet.uav[94] utilizationCountManeuversMaintenance 126
scalar OsgEarthNet.uav[94] utilizationCountChargeState 63
scalar OsgEarthNet.uav[94] utilizationCountOverdrawnAfterMission 0
scalar OsgEarthNet.uav[94] utilizationCountIdleState 12
scalar OsgEarthNet.uav[94] utilizationFail 0
scalar OsgEarthNet.uav[94] simulationTime 259200
scalar OsgEarthNet.uav[95] utilizationSecMission 30157.503899231
scalar OsgEarthNet.uav[95] utilizationSecMaintenance 26761.44079527
scalar OsgEarthNet.uav[95] utilizationSecCharge 194110.80602471
scalar OsgEarthNet.uav[95] utilizationSecIdle 8170.2482807896
scalar OsgEarthNet.uav[95] utilizationEnergyMission 145774.36888123
scalar OsgEarthNet.uav[95] utilizationEnergyMaintenance 124827.43846512
scalar OsgEarthNet.uav[95] utilizationEnergyCharge 265533.7520752
scalar OsgEarthNet.uav[95] utilizationEnergyOverdrawMission 0
scalar OsgEarthNet.uav[95] utilizationEnergyOverdrawMaintenance 0
scalar OsgEarthNet.uav[95] utilizationCountMissions 61
scalar OsgEarthNet.uav[95] utilizationCountManeuversMission 850
scalar OsgEarthNet.uav[95] utilizationCountManeuversMaintenance 122
scalar OsgEarthNet.uav[95] utilizationCountChargeState 61
scalar OsgEarthNet.uav[95] utilizationCountOverdrawnAfterMission 0
scalar OsgEarthNet.uav[95] utilizationCountIdleState 20
scalar OsgEarthNet.uav[95] utilizationFail 0
scalar OsgEarthNet.uav[95] simulationTime 259200
scalar OsgEarthNet.uav[96] utilizationSecMission 27978.36029231
scalar OsgEarthNet.uav[96] utilizationSecMaintenance 29009.670900819
scalar OsgEarthNet.uav[96] utilizationSecCharge 197179.96780687
scalar OsgEarthNet.uav[96] utilizationSecIdle 5032
scalar OsgEarthNet.uav[96] utilizationEnergyMission 135082.36158752
scalar OsgEarthNet.uav[96] utilizationEnergyMaintenance 135576.17656326
scalar OsgEarthNet.uav[96] utilizationEnergyCharge 267800.73535156
scalar OsgEarthNet.uav[96] utilizationEnergyOverdrawMission 0
scalar OsgEarthNet.uav[96] utilizationEnergyOverdrawMaintenance 226.62330627441
scalar OsgEarthNet.uav[96] utilizationCountMissions 62
scalar OsgEarthNet.uav[96] utilizationCountManeuversMission 859
scalar OsgEarthNet.uav[96] utilizationCountManeuversMaintenance 124
scalar OsgEarthNet.uav[96] utilizationCountChargeState 62
scalar OsgEarthNet.uav[96] utilizationCountOverdrawnAfterMission 1
scalar OsgEarthNet.uav[96] utilizationCountIdleState 22
scalar OsgEarthNet.uav[96] utilizationFail 0
scalar OsgEarthNet.uav[96] simulationTime 259200
scalar OsgEarthNet.uav[97] utilizationSecMission 28772.258068819
scalar OsgEarthNet.uav[97] utilizationSecMaintenance 27275.65088389
scalar OsgEarthNet.uav[97] utilizationSecCharge 197019.75996149
scalar OsgEarthNet.uav[97] utilizationSecIdle 6132.330085804
scalar OsgEarthNet.uav[97] utilizationEnergyMission 139913.7906456
scalar OsgEarthNet.uav[97] utilizationEnergyMaintenance 128063.38405228
scalar OsgEarthNet.uav[97] utilizationEnergyCharge 267952.10693359
scalar OsgEarthNet.uav[97] utilizationEnergyOverdrawMission 0
scalar OsgEarthNet.uav[97] utilizationEnergyOverdrawMaintenance 0
scalar OsgEarthNet.uav[97] utilizationCountMissions 62
scalar OsgEarthNet.uav[97] utilizationCountManeuversMission 945
scalar OsgEarthNet.uav[97] utilizationCountManeuversMaintenance 124
scalar OsgEarthNet.uav[97] utilizationCountChargeState 62
scalar OsgEarthNet.uav[97] utilizationCountOverdrawnAfterMission 0
scalar OsgEarthNet.uav[97] utilizationCountIdleState 24
scalar OsgEarthNet.uav[97] utilizationFail 0
scalar OsgEarthNet.uav[97] simulationTime 259200
scalar OsgEarthNet.uav[98] utilizationSecMission 27311.00177427
scalar OsgEarthNet.uav[98] utilizationSecMaintenance 29886.205090845
scalar OsgEarthNet.uav[98] utilizationSecCharge 198640.79213489
scalar OsgEarthNet.uav[98] utilizationSecIdle 3362
scalar OsgEarthNet.uav[98] utilizationEnergyMission 134451.92468643
scalar OsgEarthNet.uav[98] utilizationEnergyMaintenance 138679.09913254
scalar OsgEarthNet.uav[98] utilizationEnergyCharge 271181.49731445
scalar OsgEarthNet.uav[98] utilizationEnergyOverdrawMission 0
scalar OsgEarthNet.uav[98] utilizationEnergyOverdrawMaintenance 154.5927734375
scalar OsgEarthNet.uav[98] utilizationCountMissions 63
scalar OsgEarthNet.uav[98] utilizationCountManeuversMission 905
scalar OsgEarthNet.uav[98] utilizationCountManeuversMaintenance 125
scalar OsgEarthNet.uav[98] utilizationCountChargeState 63
scalar OsgEarthNet.uav[98] utilizationCountOverdrawnAfterMission 1
scalar OsgEarthNet.uav[98] utilizationCountIdleState 17
scalar OsgEarthNet.uav[98] utilizationFail 0
scalar OsgEarthNet.uav[98] simulationTime 259200
scalar OsgEarthNet.uav[99] utilizationSecMission 27954.454100866
scalar OsgEarthNet.uav[99] utilizationSecMaintenance 27434.589643469
scalar OsgEarthNet.uav[99] utilizationSecCharge 194040
scalar OsgEarthNet.uav[99] utilizationSecIdle 9770.9552556647
scalar OsgEarthNet.uav[99] utilizationEnergyMission 133408.4371376
scalar OsgEarthNet.uav[99] utilizationEnergyMaintenance 128818.33472611
scalar OsgEarthNet.uav[99] utilizationEnergyCharge 263348.43505859
scalar OsgEarthNet.uav[99] utilizationEnergyOverdrawMission 0
scalar OsgEarthNet.uav[99] utilizationEnergyOverdrawMaintenance 0
scalar OsgEarthNet.uav[99] utilizationCountMissions 61
scalar OsgEarthNet.uav[99] utilizationCountManeuversMission 864
scalar OsgEarthNet.uav[99] utilizationCountManeuversMaintenance 123
scalar OsgEarthNet.uav[99] utilizationCountChargeState 61
scalar OsgEarthNet.uav[99] utilizationCountOverdrawnAfterMission 0
scalar OsgEarthNet.uav[99] utilizationCountIdleState 20
scalar OsgEarthNet.uav[99] utilizationFail 0
scalar OsgEarthNet.uav[99] simulationTime 259200
scalar OsgEarthNet.cs[0] usedPower 5571899.0531484
scalar OsgEarthNet.cs[0] chargedPower 5571899.0531484
scalar OsgEarthNet.cs[0] chargedMobileNodes 973
scalar OsgEarthNet.cs[0] reservations 1301
scalar OsgEarthNet.cs[1] usedPower 5831840.5965634
scalar OsgEarthNet.cs[1] chargedPower 5831840.5965634
scalar OsgEarthNet.cs[1] chargedMobileNodes 1003
scalar OsgEarthNet.cs[1] reservations 1315
scalar OsgEarthNet.cs[2] usedPower 9719543.5268839
scalar OsgEarthNet.cs[2] chargedPower 9719543.5268839
scalar OsgEarthNet.cs[2] chargedMobileNodes 1770
scalar OsgEarthNet.cs[2] reservations 2271

