version 2
run Szenario_Hotel_Gabelbach-159-20180712-03:35:38-17532
attr configname Szenario_Hotel_Gabelbach
attr datetime 20180712-03:35:38
attr experiment Szenario_Hotel_Gabelbach
attr inifile omnetpp.ini
attr iterationvars "$replM=2, $biWeight=0.35, $replSearchM=1, $numUAVs=75"
attr iterationvarsf replM=2,biWeight=0.35,replSearchM=1,numUAVs=75-
attr measurement "$replM=2, $biWeight=0.35, $replSearchM=1, $numUAVs=75"
attr network OsgEarthNet
attr processid 17532
attr repetition 3
attr replication #3
attr resultdir results
attr runnumber 159
attr seedset 159
itervar biWeight 0.35
itervar numUAVs 75
itervar replM 2
itervar replSearchM 1
param *.osgEarthScene.scene "\"Szenario_Hotel_Gabelbach.earth\""
param *.playgroundLatitude 50.6830269
param *.playgroundLongitude 10.8538055
param *.playgroundWidth 3500m
param *.playgroundHeight 3500m
param *.cs[0].posX 3537m
param *.cs[0].posY 965m
param *.cs[0].posZ 538m
param *.cs[1].posX 312m
param *.cs[1].posY 1262m
param *.cs[1].posZ 539m
param *.cs[2].posX 2185m
param *.cs[2].posY 3026m
param *.cs[2].posZ 777m
param *.cs[3].posX 10m
param *.cs[3].posY 2200m
param *.cs[3].posZ 560m
param *.cs[4].posX 750m
param *.cs[4].posY 200m
param *.cs[4].posZ 540m
param *.cs[5].posX 2450m
param *.cs[5].posY 180m
param *.cs[5].posZ 524m
param *.cs[6].posX 3140m
param *.cs[6].posY 1790m
param *.cs[6].posZ 606m
param *.numCSs 3
param *.uav[*].replacementMethod 2
param *.uav[*].weightedSumWeight 0.35
param *.missionControl.replacementSearchMethod 1
param *.numUAVs 75
param *.numCSs 3
param *.numUAVs 100
param *.*.timeStep 10s
param *.uav[*].commandPreviewCommandCount 20
param *.missionControl.missionFiles "\"missions\\\\Szenario_WB_Hotel_Gabelbach_Mission_Hotel.waypoints,missions\\\\Szenario_WB_Hotel_Gabelbach_Mission_Kickelhahn.waypoints,missions\\\\Szenario_WB_Hotel_Gabelbach_Mission_Ilmenau_Sportplatz.waypoints,missions\\\\Szenario_WB_Hotel_Gabelbach_Mission_Manebach_Mitte.waypoints,missions\\\\Szenario_WB_Hotel_Gabelbach_Mission_Manebach_Sued.waypoints,missions\\\\Szenario_WB_Hotel_Gabelbach_Hover_HoheSchlaufe.waypoints,missions\\\\Szenario_WB_Hotel_Gabelbach_Hover_Kickelhahn.waypoints,missions\\\\Szenario_WB_Hotel_Gabelbach_Hover_Gabelbachskopf.waypoints,missions\\\\Szenario_WB_Hotel_Gabelbach_Hover_Dachskopf.waypoints\""
param *.uav[0].startX 3537m
param *.uav[0].startY 965m
param *.uav[0].startZ 539m
param *.uav[1].startX 312m
param *.uav[1].startY 1262m
param *.uav[1].startZ 540m
param *.uav[2].startX 2185m
param *.uav[2].startY 3026m
param *.uav[2].startZ 778m
param *.uav[3].startX 3537m
param *.uav[3].startY 965m
param *.uav[3].startZ 539m
param *.uav[4].startX 312m
param *.uav[4].startY 1262m
param *.uav[4].startZ 540m
param *.uav[5].startX 2185m
param *.uav[5].startY 3026m
param *.uav[5].startZ 778m
param *.uav[6].startX 3537m
param *.uav[6].startY 965m
param *.uav[6].startZ 539m
param *.uav[7].startX 312m
param *.uav[7].startY 1262m
param *.uav[7].startZ 540m
param *.uav[8].startX 2185m
param *.uav[8].startY 3026m
param *.uav[8].startZ 778m
param *.uav[9].startX 3537m
param *.uav[9].startY 965m
param *.uav[9].startZ 539m
param *.uav[10].startX 3537m
param *.uav[10].startY 965m
param *.uav[10].startZ 539m
param *.uav[11].startX 312m
param *.uav[11].startY 1262m
param *.uav[11].startZ 540m
param *.uav[12].startX 2185m
param *.uav[12].startY 3026m
param *.uav[12].startZ 778m
param *.uav[13].startX 3537m
param *.uav[13].startY 965m
param *.uav[13].startZ 539m
param *.uav[14].startX 312m
param *.uav[14].startY 1262m
param *.uav[14].startZ 540m
param *.uav[15].startX 2185m
param *.uav[15].startY 3026m
param *.uav[15].startZ 778m
param *.uav[16].startX 3537m
param *.uav[16].startY 965m
param *.uav[16].startZ 539m
param *.uav[17].startX 312m
param *.uav[17].startY 1262m
param *.uav[17].startZ 540m
param *.uav[18].startX 2185m
param *.uav[18].startY 3026m
param *.uav[18].startZ 778m
param *.uav[19].startX 3537m
param *.uav[19].startY 965m
param *.uav[19].startZ 539m
param *.uav[20].startX 3537m
param *.uav[20].startY 965m
param *.uav[20].startZ 539m
param *.uav[21].startX 312m
param *.uav[21].startY 1262m
param *.uav[21].startZ 540m
param *.uav[22].startX 2185m
param *.uav[22].startY 3026m
param *.uav[22].startZ 778m
param *.uav[23].startX 3537m
param *.uav[23].startY 965m
param *.uav[23].startZ 539m
param *.uav[24].startX 312m
param *.uav[24].startY 1262m
param *.uav[24].startZ 540m
param *.uav[25].startX 2185m
param *.uav[25].startY 3026m
param *.uav[25].startZ 778m
param *.uav[26].startX 3537m
param *.uav[26].startY 965m
param *.uav[26].startZ 539m
param *.uav[27].startX 312m
param *.uav[27].startY 1262m
param *.uav[27].startZ 540m
param *.uav[28].startX 2185m
param *.uav[28].startY 3026m
param *.uav[28].startZ 778m
param *.uav[29].startX 3537m
param *.uav[29].startY 965m
param *.uav[29].startZ 539m
param *.uav[30].startX 3537m
param *.uav[30].startY 965m
param *.uav[30].startZ 539m
param *.uav[31].startX 312m
param *.uav[31].startY 1262m
param *.uav[31].startZ 540m
param *.uav[32].startX 2185m
param *.uav[32].startY 3026m
param *.uav[32].startZ 778m
param *.uav[33].startX 3537m
param *.uav[33].startY 965m
param *.uav[33].startZ 539m
param *.uav[34].startX 312m
param *.uav[34].startY 1262m
param *.uav[34].startZ 540m
param *.uav[35].startX 2185m
param *.uav[35].startY 3026m
param *.uav[35].startZ 778m
param *.uav[36].startX 3537m
param *.uav[36].startY 965m
param *.uav[36].startZ 539m
param *.uav[37].startX 312m
param *.uav[37].startY 1262m
param *.uav[37].startZ 540m
param *.uav[38].startX 2185m
param *.uav[38].startY 3026m
param *.uav[38].startZ 778m
param *.uav[39].startX 3537m
param *.uav[39].startY 965m
param *.uav[39].startZ 539m
param *.uav[40].startX 3537m
param *.uav[40].startY 965m
param *.uav[40].startZ 539m
param *.uav[41].startX 312m
param *.uav[41].startY 1262m
param *.uav[41].startZ 540m
param *.uav[42].startX 2185m
param *.uav[42].startY 3026m
param *.uav[42].startZ 778m
param *.uav[43].startX 3537m
param *.uav[43].startY 965m
param *.uav[43].startZ 539m
param *.uav[44].startX 312m
param *.uav[44].startY 1262m
param *.uav[44].startZ 540m
param *.uav[45].startX 2185m
param *.uav[45].startY 3026m
param *.uav[45].startZ 778m
param *.uav[46].startX 3537m
param *.uav[46].startY 965m
param *.uav[46].startZ 539m
param *.uav[47].startX 312m
param *.uav[47].startY 1262m
param *.uav[47].startZ 540m
param *.uav[48].startX 2185m
param *.uav[48].startY 3026m
param *.uav[48].startZ 778m
param *.uav[49].startX 3537m
param *.uav[49].startY 965m
param *.uav[49].startZ 539m
param *.uav[50].startX 3537m
param *.uav[50].startY 965m
param *.uav[50].startZ 539m
param *.uav[51].startX 312m
param *.uav[51].startY 1262m
param *.uav[51].startZ 540m
param *.uav[52].startX 2185m
param *.uav[52].startY 3026m
param *.uav[52].startZ 778m
param *.uav[53].startX 3537m
param *.uav[53].startY 965m
param *.uav[53].startZ 539m
param *.uav[54].startX 312m
param *.uav[54].startY 1262m
param *.uav[54].startZ 540m
param *.uav[55].startX 2185m
param *.uav[55].startY 3026m
param *.uav[55].startZ 778m
param *.uav[56].startX 3537m
param *.uav[56].startY 965m
param *.uav[56].startZ 539m
param *.uav[57].startX 312m
param *.uav[57].startY 1262m
param *.uav[57].startZ 540m
param *.uav[58].startX 2185m
param *.uav[58].startY 3026m
param *.uav[58].startZ 778m
param *.uav[59].startX 3537m
param *.uav[59].startY 965m
param *.uav[59].startZ 539m
param *.uav[60].startX 3537m
param *.uav[60].startY 965m
param *.uav[60].startZ 539m
param *.uav[61].startX 312m
param *.uav[61].startY 1262m
param *.uav[61].startZ 540m
param *.uav[62].startX 2185m
param *.uav[62].startY 3026m
param *.uav[62].startZ 778m
param *.uav[63].startX 3537m
param *.uav[63].startY 965m
param *.uav[63].startZ 539m
param *.uav[64].startX 312m
param *.uav[64].startY 1262m
param *.uav[64].startZ 540m
param *.uav[65].startX 2185m
param *.uav[65].startY 3026m
param *.uav[65].startZ 778m
param *.uav[66].startX 3537m
param *.uav[66].startY 965m
param *.uav[66].startZ 539m
param *.uav[67].startX 312m
param *.uav[67].startY 1262m
param *.uav[67].startZ 540m
param *.uav[68].startX 2185m
param *.uav[68].startY 3026m
param *.uav[68].startZ 778m
param *.uav[69].startX 3537m
param *.uav[69].startY 965m
param *.uav[69].startZ 539m
param *.uav[70].startX 3537m
param *.uav[70].startY 965m
param *.uav[70].startZ 539m
param *.uav[71].startX 312m
param *.uav[71].startY 1262m
param *.uav[71].startZ 540m
param *.uav[72].startX 2185m
param *.uav[72].startY 3026m
param *.uav[72].startZ 778m
param *.uav[73].startX 3537m
param *.uav[73].startY 965m
param *.uav[73].startZ 539m
param *.uav[74].startX 312m
param *.uav[74].startY 1262m
param *.uav[74].startZ 540m
param *.uav[75].startX 2185m
param *.uav[75].startY 3026m
param *.uav[75].startZ 778m
param *.uav[76].startX 3537m
param *.uav[76].startY 965m
param *.uav[76].startZ 539m
param *.uav[77].startX 312m
param *.uav[77].startY 1262m
param *.uav[77].startZ 540m
param *.uav[78].startX 2185m
param *.uav[78].startY 3026m
param *.uav[78].startZ 778m
param *.uav[79].startX 3537m
param *.uav[79].startY 965m
param *.uav[79].startZ 539m
param *.uav[80].startX 3537m
param *.uav[80].startY 965m
param *.uav[80].startZ 539m
param *.uav[81].startX 312m
param *.uav[81].startY 1262m
param *.uav[81].startZ 540m
param *.uav[82].startX 2185m
param *.uav[82].startY 3026m
param *.uav[82].startZ 778m
param *.uav[83].startX 3537m
param *.uav[83].startY 965m
param *.uav[83].startZ 539m
param *.uav[84].startX 312m
param *.uav[84].startY 1262m
param *.uav[84].startZ 540m
param *.uav[85].startX 2185m
param *.uav[85].startY 3026m
param *.uav[85].startZ 778m
param *.uav[86].startX 3537m
param *.uav[86].startY 965m
param *.uav[86].startZ 539m
param *.uav[87].startX 312m
param *.uav[87].startY 1262m
param *.uav[87].startZ 540m
param *.uav[88].startX 2185m
param *.uav[88].startY 3026m
param *.uav[88].startZ 778m
param *.uav[89].startX 3537m
param *.uav[89].startY 965m
param *.uav[89].startZ 539m
param *.uav[90].startX 3537m
param *.uav[90].startY 965m
param *.uav[90].startZ 539m
param *.uav[91].startX 312m
param *.uav[91].startY 1262m
param *.uav[91].startZ 540m
param *.uav[92].startX 2185m
param *.uav[92].startY 3026m
param *.uav[92].startZ 778m
param *.uav[93].startX 3537m
param *.uav[93].startY 965m
param *.uav[93].startZ 539m
param *.uav[94].startX 312m
param *.uav[94].startY 1262m
param *.uav[94].startZ 540m
param *.uav[95].startX 2185m
param *.uav[95].startY 3026m
param *.uav[95].startZ 778m
param *.uav[96].startX 3537m
param *.uav[96].startY 965m
param *.uav[96].startZ 539m
param *.uav[97].startX 312m
param *.uav[97].startY 1262m
param *.uav[97].startZ 540m
param *.uav[98].startX 2185m
param *.uav[98].startY 3026m
param *.uav[98].startZ 778m
param *.uav[99].startX 3537m
param *.uav[99].startY 965m
param *.uav[99].startZ 539m
param *.osgEarthScene.scene "\"boston.earth\""
param *.playgroundLatitude 42.3558
param *.playgroundLongitude -71.0677
param *.playgroundWidth 400m
param *.playgroundHeight 200m
param *.channelController.connectionColor "\"#0000FF40\""
param *.channelController.showConnections false
param *.uav[*].modelURL "\"quadrocopter.small.obj.15.scale.0,0,90.rot\""
param *.uav[*].labelColor "\"#FF7C00CC\""
param *.uav[*].label2Color "\"#FF7C00EE\""
param *.uav[*].batteryCapacity 5200mAh
param *.uav[*].batteryRemaining uav[index].batteryCapacity
param *.uav[*].predictionQuantile 0.95
param *.uav[*].replacementMethod 2
param *.uav[*].weightedSumWeight 0.5
param *.cs[*].modelURL "\"chargingstation_v1.osgt.2.scale.0,0,0.rot.0,0,-15e-1.trans\""
param *.cs[*].spotsWaiting 999
param *.cs[*].spotsCharging 999
param *.cs[*].chargeEffectivenessPercentage 100
param *.cs[*].nonLinearPhaseStartPercentage 85
param *.cs[*].chargeCurrent 6.0A
param *.cs[*].prioritizeFastCharge true
param *.missionControl.replacementSearchMethod 0
param *.*.timeStep 9s

scalar OsgEarthNet.uav[0] utilizationSecMission 23598.366227035
scalar OsgEarthNet.uav[0] utilizationSecMaintenance 9636.7796184204
scalar OsgEarthNet.uav[0] utilizationSecCharge 123130
scalar OsgEarthNet.uav[0] utilizationSecIdle 102834.85315454
scalar OsgEarthNet.uav[0] utilizationEnergyMission 115256.30939102
scalar OsgEarthNet.uav[0] utilizationEnergyMaintenance 44096.582462311
scalar OsgEarthNet.uav[0] utilizationEnergyCharge 160274.48193359
scalar OsgEarthNet.uav[0] utilizationEnergyOverdrawMission 0
scalar OsgEarthNet.uav[0] utilizationEnergyOverdrawMaintenance 0
scalar OsgEarthNet.uav[0] utilizationCountMissions 35
scalar OsgEarthNet.uav[0] utilizationCountManeuversMission 782
scalar OsgEarthNet.uav[0] utilizationCountManeuversMaintenance 69
scalar OsgEarthNet.uav[0] utilizationCountChargeState 35
scalar OsgEarthNet.uav[0] utilizationCountOverdrawnAfterMission 0
scalar OsgEarthNet.uav[0] utilizationCountIdleState 35
scalar OsgEarthNet.uav[0] utilizationFail 0
scalar OsgEarthNet.uav[0] simulationTime 259200
scalar OsgEarthNet.uav[1] utilizationSecMission 30325.98255126
scalar OsgEarthNet.uav[1] utilizationSecMaintenance 13016.709645824
scalar OsgEarthNet.uav[1] utilizationSecCharge 156641.86371422
scalar OsgEarthNet.uav[1] utilizationSecIdle 59215.443088691
scalar OsgEarthNet.uav[1] utilizationEnergyMission 146560.48097229
scalar OsgEarthNet.uav[1] utilizationEnergyMaintenance 60412.929363251
scalar OsgEarthNet.uav[1] utilizationEnergyCharge 202621.46130371
scalar OsgEarthNet.uav[1] utilizationEnergyOverdrawMission 0
scalar OsgEarthNet.uav[1] utilizationEnergyOverdrawMaintenance 0
scalar OsgEarthNet.uav[1] utilizationCountMissions 45
scalar OsgEarthNet.uav[1] utilizationCountManeuversMission 1014
scalar OsgEarthNet.uav[1] utilizationCountManeuversMaintenance 90
scalar OsgEarthNet.uav[1] utilizationCountChargeState 45
scalar OsgEarthNet.uav[1] utilizationCountOverdrawnAfterMission 0
scalar OsgEarthNet.uav[1] utilizationCountIdleState 45
scalar OsgEarthNet.uav[1] utilizationFail 0
scalar OsgEarthNet.uav[1] simulationTime 259200
scalar OsgEarthNet.uav[2] utilizationSecMission 30137.074694985
scalar OsgEarthNet.uav[2] utilizationSecMaintenance 14093.29322435
scalar OsgEarthNet.uav[2] utilizationSecCharge 163290
scalar OsgEarthNet.uav[2] utilizationSecIdle 51679.631080665
scalar OsgEarthNet.uav[2] utilizationEnergyMission 148929.01162297
scalar OsgEarthNet.uav[2] utilizationEnergyMaintenance 64764.944984436
scalar OsgEarthNet.uav[2] utilizationEnergyCharge 210974.61816406
scalar OsgEarthNet.uav[2] utilizationEnergyOverdrawMission 0
scalar OsgEarthNet.uav[2] utilizationEnergyOverdrawMaintenance 0
scalar OsgEarthNet.uav[2] utilizationCountMissions 46
scalar OsgEarthNet.uav[2] utilizationCountManeuversMission 1063
scalar OsgEarthNet.uav[2] utilizationCountManeuversMaintenance 93
scalar OsgEarthNet.uav[2] utilizationCountChargeState 46
scalar OsgEarthNet.uav[2] utilizationCountOverdrawnAfterMission 0
scalar OsgEarthNet.uav[2] utilizationCountIdleState 47
scalar OsgEarthNet.uav[2] utilizationFail 0
scalar OsgEarthNet.uav[2] simulationTime 259200
scalar OsgEarthNet.uav[3] utilizationSecMission 28189.377288704
scalar OsgEarthNet.uav[3] utilizationSecMaintenance 19451.901822439
scalar OsgEarthNet.uav[3] utilizationSecCharge 177505.32777132
scalar OsgEarthNet.uav[3] utilizationSecIdle 34053.392117534
scalar OsgEarthNet.uav[3] utilizationEnergyMission 139137.7946434
scalar OsgEarthNet.uav[3] utilizationEnergyMaintenance 92188.295425415
scalar OsgEarthNet.uav[3] utilizationEnergyCharge 230377.81982422
scalar OsgEarthNet.uav[3] utilizationEnergyOverdrawMission 0
scalar OsgEarthNet.uav[3] utilizationEnergyOverdrawMaintenance 0
scalar OsgEarthNet.uav[3] utilizationCountMissions 51
scalar OsgEarthNet.uav[3] utilizationCountManeuversMission 1019
scalar OsgEarthNet.uav[3] utilizationCountManeuversMaintenance 102
scalar OsgEarthNet.uav[3] utilizationCountChargeState 51
scalar OsgEarthNet.uav[3] utilizationCountOverdrawnAfterMission 0
scalar OsgEarthNet.uav[3] utilizationCountIdleState 44
scalar OsgEarthNet.uav[3] utilizationFail 0
scalar OsgEarthNet.uav[3] simulationTime 259200
scalar OsgEarthNet.uav[4] utilizationSecMission 30983.878194566
scalar OsgEarthNet.uav[4] utilizationSecMaintenance 17327.415125834
scalar OsgEarthNet.uav[4] utilizationSecCharge 185900
scalar OsgEarthNet.uav[4] utilizationSecIdle 24988.7056796
scalar OsgEarthNet.uav[4] utilizationEnergyMission 149824.59299088
scalar OsgEarthNet.uav[4] utilizationEnergyMaintenance 82260.773235321
scalar OsgEarthNet.uav[4] utilizationEnergyCharge 232775.30493164
scalar OsgEarthNet.uav[4] utilizationEnergyOverdrawMission 0
scalar OsgEarthNet.uav[4] utilizationEnergyOverdrawMaintenance 0
scalar OsgEarthNet.uav[4] utilizationCountMissions 57
scalar OsgEarthNet.uav[4] utilizationCountManeuversMission 874
scalar OsgEarthNet.uav[4] utilizationCountManeuversMaintenance 114
scalar OsgEarthNet.uav[4] utilizationCountChargeState 57
scalar OsgEarthNet.uav[4] utilizationCountOverdrawnAfterMission 0
scalar OsgEarthNet.uav[4] utilizationCountIdleState 57
scalar OsgEarthNet.uav[4] utilizationFail 0
scalar OsgEarthNet.uav[4] simulationTime 259200
scalar OsgEarthNet.uav[5] utilizationSecMission 32012.422274659
scalar OsgEarthNet.uav[5] utilizationSecMaintenance 12578.496195626
scalar OsgEarthNet.uav[5] utilizationSecCharge 160753.62487631
scalar OsgEarthNet.uav[5] utilizationSecIdle 53855.455653403
scalar OsgEarthNet.uav[5] utilizationEnergyMission 156184.28439331
scalar OsgEarthNet.uav[5] utilizationEnergyMaintenance 57109.849842072
scalar OsgEarthNet.uav[5] utilizationEnergyCharge 208480.93933105
scalar OsgEarthNet.uav[5] utilizationEnergyOverdrawMission 0
scalar OsgEarthNet.uav[5] utilizationEnergyOverdrawMaintenance 0
scalar OsgEarthNet.uav[5] utilizationCountMissions 46
scalar OsgEarthNet.uav[5] utilizationCountManeuversMission 1069
scalar OsgEarthNet.uav[5] utilizationCountManeuversMaintenance 92
scalar OsgEarthNet.uav[5] utilizationCountChargeState 46
scalar OsgEarthNet.uav[5] utilizationCountOverdrawnAfterMission 0
scalar OsgEarthNet.uav[5] utilizationCountIdleState 46
scalar OsgEarthNet.uav[5] utilizationFail 0
scalar OsgEarthNet.uav[5] simulationTime 259200
scalar OsgEarthNet.uav[6] utilizationSecMission 30883.386242936
scalar OsgEarthNet.uav[6] utilizationSecMaintenance 19050.270821466
scalar OsgEarthNet.uav[6] utilizationSecCharge 183424.3419356
scalar OsgEarthNet.uav[6] utilizationSecIdle 25842
scalar OsgEarthNet.uav[6] utilizationEnergyMission 150778.40172195
scalar OsgEarthNet.uav[6] utilizationEnergyMaintenance 90261.592567444
scalar OsgEarthNet.uav[6] utilizationEnergyCharge 237763.27197266
scalar OsgEarthNet.uav[6] utilizationEnergyOverdrawMission 0
scalar OsgEarthNet.uav[6] utilizationEnergyOverdrawMaintenance 0
scalar OsgEarthNet.uav[6] utilizationCountMissions 53
scalar OsgEarthNet.uav[6] utilizationCountManeuversMission 993
scalar OsgEarthNet.uav[6] utilizationCountManeuversMaintenance 106
scalar OsgEarthNet.uav[6] utilizationCountChargeState 53
scalar OsgEarthNet.uav[6] utilizationCountOverdrawnAfterMission 0
scalar OsgEarthNet.uav[6] utilizationCountIdleState 46
scalar OsgEarthNet.uav[6] utilizationFail 0
scalar OsgEarthNet.uav[6] simulationTime 259200
scalar OsgEarthNet.uav[7] utilizationSecMission 30094.642071839
scalar OsgEarthNet.uav[7] utilizationSecMaintenance 18172.159627939
scalar OsgEarthNet.uav[7] utilizationSecCharge 184202.23331455
scalar OsgEarthNet.uav[7] utilizationSecIdle 26730.963985674
scalar OsgEarthNet.uav[7] utilizationEnergyMission 146051.44051361
scalar OsgEarthNet.uav[7] utilizationEnergyMaintenance 85912.511398315
scalar OsgEarthNet.uav[7] utilizationEnergyCharge 227672.18762207
scalar OsgEarthNet.uav[7] utilizationEnergyOverdrawMission 0
scalar OsgEarthNet.uav[7] utilizationEnergyOverdrawMaintenance 0
scalar OsgEarthNet.uav[7] utilizationCountMissions 59
scalar OsgEarthNet.uav[7] utilizationCountManeuversMission 887
scalar OsgEarthNet.uav[7] utilizationCountManeuversMaintenance 118
scalar OsgEarthNet.uav[7] utilizationCountChargeState 59
scalar OsgEarthNet.uav[7] utilizationCountOverdrawnAfterMission 0
scalar OsgEarthNet.uav[7] utilizationCountIdleState 58
scalar OsgEarthNet.uav[7] utilizationFail 0
scalar OsgEarthNet.uav[7] simulationTime 259200
scalar OsgEarthNet.uav[8] utilizationSecMission 28132.811174165
scalar OsgEarthNet.uav[8] utilizationSecMaintenance 11858.835281018
scalar OsgEarthNet.uav[8] utilizationSecCharge 148900
scalar OsgEarthNet.uav[8] utilizationSecIdle 70308.352544818
scalar OsgEarthNet.uav[8] utilizationEnergyMission 135220.91746902
scalar OsgEarthNet.uav[8] utilizationEnergyMaintenance 55816.654666901
scalar OsgEarthNet.uav[8] utilizationEnergyCharge 193151.37695312
scalar OsgEarthNet.uav[8] utilizationEnergyOverdrawMission 0
scalar OsgEarthNet.uav[8] utilizationEnergyOverdrawMaintenance 0
scalar OsgEarthNet.uav[8] utilizationCountMissions 42
scalar OsgEarthNet.uav[8] utilizationCountManeuversMission 918
scalar OsgEarthNet.uav[8] utilizationCountManeuversMaintenance 84
scalar OsgEarthNet.uav[8] utilizationCountChargeState 42
scalar OsgEarthNet.uav[8] utilizationCountOverdrawnAfterMission 0
scalar OsgEarthNet.uav[8] utilizationCountIdleState 42
scalar OsgEarthNet.uav[8] utilizationFail 0
scalar OsgEarthNet.uav[8] simulationTime 259200
scalar OsgEarthNet.uav[9] utilizationSecMission 29031.252746445
scalar OsgEarthNet.uav[9] utilizationSecMaintenance 19115.970561602
scalar OsgEarthNet.uav[9] utilizationSecCharge 178640.76769195
scalar OsgEarthNet.uav[9] utilizationSecIdle 32412.008
scalar OsgEarthNet.uav[9] utilizationEnergyMission 141531.51093292
scalar OsgEarthNet.uav[9] utilizationEnergyMaintenance 90711.95218277
scalar OsgEarthNet.uav[9] utilizationEnergyCharge 232500.39160156
scalar OsgEarthNet.uav[9] utilizationEnergyOverdrawMission 0
scalar OsgEarthNet.uav[9] utilizationEnergyOverdrawMaintenance 0
scalar OsgEarthNet.uav[9] utilizationCountMissions 51
scalar OsgEarthNet.uav[9] utilizationCountManeuversMission 983
scalar OsgEarthNet.uav[9] utilizationCountManeuversMaintenance 102
scalar OsgEarthNet.uav[9] utilizationCountChargeState 51
scalar OsgEarthNet.uav[9] utilizationCountOverdrawnAfterMission 0
scalar OsgEarthNet.uav[9] utilizationCountIdleState 43
scalar OsgEarthNet.uav[9] utilizationFail 0
scalar OsgEarthNet.uav[9] simulationTime 259200
scalar OsgEarthNet.uav[10] utilizationSecMission 30364.120470596
scalar OsgEarthNet.uav[10] utilizationSecMaintenance 17887.834977793
scalar OsgEarthNet.uav[10] utilizationSecCharge 177016.04155161
scalar OsgEarthNet.uav[10] utilizationSecIdle 33932.002
scalar OsgEarthNet.uav[10] utilizationEnergyMission 149482.0321312
scalar OsgEarthNet.uav[10] utilizationEnergyMaintenance 84941.39692688
scalar OsgEarthNet.uav[10] utilizationEnergyCharge 231305.12304688
scalar OsgEarthNet.uav[10] utilizationEnergyOverdrawMission 0
scalar OsgEarthNet.uav[10] utilizationEnergyOverdrawMaintenance 0
scalar OsgEarthNet.uav[10] utilizationCountMissions 51
scalar OsgEarthNet.uav[10] utilizationCountManeuversMission 924
scalar OsgEarthNet.uav[10] utilizationCountManeuversMaintenance 102
scalar OsgEarthNet.uav[10] utilizationCountChargeState 51
scalar OsgEarthNet.uav[10] utilizationCountOverdrawnAfterMission 0
scalar OsgEarthNet.uav[10] utilizationCountIdleState 42
scalar OsgEarthNet.uav[10] utilizationFail 0
scalar OsgEarthNet.uav[10] simulationTime 259200
scalar OsgEarthNet.uav[11] utilizationSecMission 30826.127455499
scalar OsgEarthNet.uav[11] utilizationSecMaintenance 17405.641703618
scalar OsgEarthNet.uav[11] utilizationSecCharge 185146.22784088
scalar OsgEarthNet.uav[11] utilizationSecIdle 25822.002
scalar OsgEarthNet.uav[11] utilizationEnergyMission 147603.31216431
scalar OsgEarthNet.uav[11] utilizationEnergyMaintenance 83852.999259949
scalar OsgEarthNet.uav[11] utilizationEnergyCharge 230396.03466797
scalar OsgEarthNet.uav[11] utilizationEnergyOverdrawMission 0
scalar OsgEarthNet.uav[11] utilizationEnergyOverdrawMaintenance 0
scalar OsgEarthNet.uav[11] utilizationCountMissions 58
scalar OsgEarthNet.uav[11] utilizationCountManeuversMission 799
scalar OsgEarthNet.uav[11] utilizationCountManeuversMaintenance 116
scalar OsgEarthNet.uav[11] utilizationCountChargeState 58
scalar OsgEarthNet.uav[11] utilizationCountOverdrawnAfterMission 0
scalar OsgEarthNet.uav[11] utilizationCountIdleState 57
scalar OsgEarthNet.uav[11] utilizationFail 0
scalar OsgEarthNet.uav[11] simulationTime 259200
scalar OsgEarthNet.uav[12] utilizationSecMission 28990.779799749
scalar OsgEarthNet.uav[12] utilizationSecMaintenance 12444.837861679
scalar OsgEarthNet.uav[12] utilizationSecCharge 151918.03111775
scalar OsgEarthNet.uav[12] utilizationSecIdle 65846.350220821
scalar OsgEarthNet.uav[12] utilizationEnergyMission 141599.50053024
scalar OsgEarthNet.uav[12] utilizationEnergyMaintenance 57061.368133545
scalar OsgEarthNet.uav[12] utilizationEnergyCharge 198191.57788086
scalar OsgEarthNet.uav[12] utilizationEnergyOverdrawMission 0
scalar OsgEarthNet.uav[12] utilizationEnergyOverdrawMaintenance 0
scalar OsgEarthNet.uav[12] utilizationCountMissions 43
scalar OsgEarthNet.uav[12] utilizationCountManeuversMission 1015
scalar OsgEarthNet.uav[12] utilizationCountManeuversMaintenance 86
scalar OsgEarthNet.uav[12] utilizationCountChargeState 43
scalar OsgEarthNet.uav[12] utilizationCountOverdrawnAfterMission 0
scalar OsgEarthNet.uav[12] utilizationCountIdleState 42
scalar OsgEarthNet.uav[12] utilizationFail 0
scalar OsgEarthNet.uav[12] simulationTime 259200
scalar OsgEarthNet.uav[13] utilizationSecMission 29731.768823946
scalar OsgEarthNet.uav[13] utilizationSecMaintenance 19235.116323029
scalar OsgEarthNet.uav[13] utilizationSecCharge 181790
scalar OsgEarthNet.uav[13] utilizationSecIdle 28443.113853025
scalar OsgEarthNet.uav[13] utilizationEnergyMission 145873.54101944
scalar OsgEarthNet.uav[13] utilizationEnergyMaintenance 91807.701644897
scalar OsgEarthNet.uav[13] utilizationEnergyCharge 235927.46044922
scalar OsgEarthNet.uav[13] utilizationEnergyOverdrawMission 0
scalar OsgEarthNet.uav[13] utilizationEnergyOverdrawMaintenance 0
scalar OsgEarthNet.uav[13] utilizationCountMissions 52
scalar OsgEarthNet.uav[13] utilizationCountManeuversMission 1009
scalar OsgEarthNet.uav[13] utilizationCountManeuversMaintenance 104
scalar OsgEarthNet.uav[13] utilizationCountChargeState 52
scalar OsgEarthNet.uav[13] utilizationCountOverdrawnAfterMission 0
scalar OsgEarthNet.uav[13] utilizationCountIdleState 44
scalar OsgEarthNet.uav[13] utilizationFail 0
scalar OsgEarthNet.uav[13] simulationTime 259200
scalar OsgEarthNet.uav[14] utilizationSecMission 31268.127524521
scalar OsgEarthNet.uav[14] utilizationSecMaintenance 17099.515507676
scalar OsgEarthNet.uav[14] utilizationSecCharge 183634.55035982
scalar OsgEarthNet.uav[14] utilizationSecIdle 27197.805607979
scalar OsgEarthNet.uav[14] utilizationEnergyMission 151560.95038223
scalar OsgEarthNet.uav[14] utilizationEnergyMaintenance 81382.09104538
scalar OsgEarthNet.uav[14] utilizationEnergyCharge 231721.97216797
scalar OsgEarthNet.uav[14] utilizationEnergyOverdrawMission 0
scalar OsgEarthNet.uav[14] utilizationEnergyOverdrawMaintenance 0
scalar OsgEarthNet.uav[14] utilizationCountMissions 56
scalar OsgEarthNet.uav[14] utilizationCountManeuversMission 904
scalar OsgEarthNet.uav[14] utilizationCountManeuversMaintenance 112
scalar OsgEarthNet.uav[14] utilizationCountChargeState 56
scalar OsgEarthNet.uav[14] utilizationCountOverdrawnAfterMission 0
scalar OsgEarthNet.uav[14] utilizationCountIdleState 54
scalar OsgEarthNet.uav[14] utilizationFail 0
scalar OsgEarthNet.uav[14] simulationTime 259200
scalar OsgEarthNet.uav[15] utilizationSecMission 30659.173650251
scalar OsgEarthNet.uav[15] utilizationSecMaintenance 12091.868429475
scalar OsgEarthNet.uav[15] utilizationSecCharge 155356.95592027
scalar OsgEarthNet.uav[15] utilizationSecIdle 61092.001
scalar OsgEarthNet.uav[15] utilizationEnergyMission 148115.05623627
scalar OsgEarthNet.uav[15] utilizationEnergyMaintenance 56119.795711517
scalar OsgEarthNet.uav[15] utilizationEnergyCharge 203150.61401367
scalar OsgEarthNet.uav[15] utilizationEnergyOverdrawMission 0
scalar OsgEarthNet.uav[15] utilizationEnergyOverdrawMaintenance 0
scalar OsgEarthNet.uav[15] utilizationCountMissions 44
scalar OsgEarthNet.uav[15] utilizationCountManeuversMission 950
scalar OsgEarthNet.uav[15] utilizationCountManeuversMaintenance 88
scalar OsgEarthNet.uav[15] utilizationCountChargeState 44
scalar OsgEarthNet.uav[15] utilizationCountOverdrawnAfterMission 0
scalar OsgEarthNet.uav[15] utilizationCountIdleState 43
scalar OsgEarthNet.uav[15] utilizationFail 0
scalar OsgEarthNet.uav[15] simulationTime 259200
scalar OsgEarthNet.uav[16] utilizationSecMission 28561.401710116
scalar OsgEarthNet.uav[16] utilizationSecMaintenance 18746.172350765
scalar OsgEarthNet.uav[16] utilizationSecCharge 173746.52821281
scalar OsgEarthNet.uav[16] utilizationSecIdle 38145.896726312
scalar OsgEarthNet.uav[16] utilizationEnergyMission 140050.4353714
scalar OsgEarthNet.uav[16] utilizationEnergyMaintenance 89352.569339752
scalar OsgEarthNet.uav[16] utilizationEnergyCharge 225859.00244141
scalar OsgEarthNet.uav[16] utilizationEnergyOverdrawMission 0
scalar OsgEarthNet.uav[16] utilizationEnergyOverdrawMaintenance 0
scalar OsgEarthNet.uav[16] utilizationCountMissions 50
scalar OsgEarthNet.uav[16] utilizationCountManeuversMission 972
scalar OsgEarthNet.uav[16] utilizationCountManeuversMaintenance 100
scalar OsgEarthNet.uav[16] utilizationCountChargeState 50
scalar OsgEarthNet.uav[16] utilizationCountOverdrawnAfterMission 0
scalar OsgEarthNet.uav[16] utilizationCountIdleState 46
scalar OsgEarthNet.uav[16] utilizationFail 0
scalar OsgEarthNet.uav[16] simulationTime 259200
scalar OsgEarthNet.uav[17] utilizationSecMission 32009.088088071
scalar OsgEarthNet.uav[17] utilizationSecMaintenance 18178.910911929
scalar OsgEarthNet.uav[17] utilizationSecCharge 187780
scalar OsgEarthNet.uav[17] utilizationSecIdle 21232
scalar OsgEarthNet.uav[17] utilizationEnergyMission 155737.91736603
scalar OsgEarthNet.uav[17] utilizationEnergyMaintenance 87220.754702402
scalar OsgEarthNet.uav[17] utilizationEnergyCharge 238082.64160156
scalar OsgEarthNet.uav[17] utilizationEnergyOverdrawMission 0
scalar OsgEarthNet.uav[17] utilizationEnergyOverdrawMaintenance 0
scalar OsgEarthNet.uav[17] utilizationCountMissions 57
scalar OsgEarthNet.uav[17] utilizationCountManeuversMission 995
scalar OsgEarthNet.uav[17] utilizationCountManeuversMaintenance 113
scalar OsgEarthNet.uav[17] utilizationCountChargeState 56
scalar OsgEarthNet.uav[17] utilizationCountOverdrawnAfterMission 0
scalar OsgEarthNet.uav[17] utilizationCountIdleState 55
scalar OsgEarthNet.uav[17] utilizationFail 0
scalar OsgEarthNet.uav[17] simulationTime 259200
scalar OsgEarthNet.uav[18] utilizationSecMission 29466.058453683
scalar OsgEarthNet.uav[18] utilizationSecMaintenance 11927.181133411
scalar OsgEarthNet.uav[18] utilizationSecCharge 151635.30645419
scalar OsgEarthNet.uav[18] utilizationSecIdle 66171.452958717
scalar OsgEarthNet.uav[18] utilizationEnergyMission 142641.46862411
scalar OsgEarthNet.uav[18] utilizationEnergyMaintenance 55036.086791992
scalar OsgEarthNet.uav[18] utilizationEnergyCharge 198280.01220703
scalar OsgEarthNet.uav[18] utilizationEnergyOverdrawMission 0
scalar OsgEarthNet.uav[18] utilizationEnergyOverdrawMaintenance 0
scalar OsgEarthNet.uav[18] utilizationCountMissions 43
scalar OsgEarthNet.uav[18] utilizationCountManeuversMission 907
scalar OsgEarthNet.uav[18] utilizationCountManeuversMaintenance 86
scalar OsgEarthNet.uav[18] utilizationCountChargeState 43
scalar OsgEarthNet.uav[18] utilizationCountOverdrawnAfterMission 0
scalar OsgEarthNet.uav[18] utilizationCountIdleState 42
scalar OsgEarthNet.uav[18] utilizationFail 0
scalar OsgEarthNet.uav[18] simulationTime 259200
scalar OsgEarthNet.uav[19] utilizationSecMission 30545.093561278
scalar OsgEarthNet.uav[19] utilizationSecMaintenance 13182.760698773
scalar OsgEarthNet.uav[19] utilizationSecCharge 159540
scalar OsgEarthNet.uav[19] utilizationSecIdle 55932.144739949
scalar OsgEarthNet.uav[19] utilizationEnergyMission 150966.82952357
scalar OsgEarthNet.uav[19] utilizationEnergyMaintenance 61156.822120667
scalar OsgEarthNet.uav[19] utilizationEnergyCharge 206209.77246094
scalar OsgEarthNet.uav[19] utilizationEnergyOverdrawMission 0
scalar OsgEarthNet.uav[19] utilizationEnergyOverdrawMaintenance 0
scalar OsgEarthNet.uav[19] utilizationCountMissions 45
scalar OsgEarthNet.uav[19] utilizationCountManeuversMission 1017
scalar OsgEarthNet.uav[19] utilizationCountManeuversMaintenance 91
scalar OsgEarthNet.uav[19] utilizationCountChargeState 45
scalar OsgEarthNet.uav[19] utilizationCountOverdrawnAfterMission 0
scalar OsgEarthNet.uav[19] utilizationCountIdleState 46
scalar OsgEarthNet.uav[19] utilizationFail 0
scalar OsgEarthNet.uav[19] simulationTime 259200
scalar OsgEarthNet.uav[20] utilizationSecMission 29871.986974105
scalar OsgEarthNet.uav[20] utilizationSecMaintenance 18953.993756167
scalar OsgEarthNet.uav[20] utilizationSecCharge 179300
scalar OsgEarthNet.uav[20] utilizationSecIdle 31074.018269728
scalar OsgEarthNet.uav[20] utilizationEnergyMission 144452.71345139
scalar OsgEarthNet.uav[20] utilizationEnergyMaintenance 90129.163671352
scalar OsgEarthNet.uav[20] utilizationEnergyCharge 232356.51220703
scalar OsgEarthNet.uav[20] utilizationEnergyOverdrawMission 0
scalar OsgEarthNet.uav[20] utilizationEnergyOverdrawMaintenance 0
scalar OsgEarthNet.uav[20] utilizationCountMissions 52
scalar OsgEarthNet.uav[20] utilizationCountManeuversMission 982
scalar OsgEarthNet.uav[20] utilizationCountManeuversMaintenance 104
scalar OsgEarthNet.uav[20] utilizationCountChargeState 51
scalar OsgEarthNet.uav[20] utilizationCountOverdrawnAfterMission 0
scalar OsgEarthNet.uav[20] utilizationCountIdleState 48
scalar OsgEarthNet.uav[20] utilizationFail 0
scalar OsgEarthNet.uav[20] simulationTime 259200
scalar OsgEarthNet.uav[21] utilizationSecMission 33251.025522423
scalar OsgEarthNet.uav[21] utilizationSecMaintenance 16516.505932007
scalar OsgEarthNet.uav[21] utilizationSecCharge 184970.46603885
scalar OsgEarthNet.uav[21] utilizationSecIdle 24462.001506722
scalar OsgEarthNet.uav[21] utilizationEnergyMission 157820.99805832
scalar OsgEarthNet.uav[21] utilizationEnergyMaintenance 78385.424510956
scalar OsgEarthNet.uav[21] utilizationEnergyCharge 235190.06396484
scalar OsgEarthNet.uav[21] utilizationEnergyOverdrawMission 0
scalar OsgEarthNet.uav[21] utilizationEnergyOverdrawMaintenance 0
scalar OsgEarthNet.uav[21] utilizationCountMissions 56
scalar OsgEarthNet.uav[21] utilizationCountManeuversMission 874
scalar OsgEarthNet.uav[21] utilizationCountManeuversMaintenance 112
scalar OsgEarthNet.uav[21] utilizationCountChargeState 56
scalar OsgEarthNet.uav[21] utilizationCountOverdrawnAfterMission 0
scalar OsgEarthNet.uav[21] utilizationCountIdleState 52
scalar OsgEarthNet.uav[21] utilizationFail 0
scalar OsgEarthNet.uav[21] simulationTime 259200
scalar OsgEarthNet.uav[22] utilizationSecMission 31389.470721827
scalar OsgEarthNet.uav[22] utilizationSecMaintenance 12653.925610228
scalar OsgEarthNet.uav[22] utilizationSecCharge 160184.60266794
scalar OsgEarthNet.uav[22] utilizationSecIdle 54972
scalar OsgEarthNet.uav[22] utilizationEnergyMission 154344.61773103
scalar OsgEarthNet.uav[22] utilizationEnergyMaintenance 57613.584114075
scalar OsgEarthNet.uav[22] utilizationEnergyCharge 208272.40795898
scalar OsgEarthNet.uav[22] utilizationEnergyOverdrawMission 0
scalar OsgEarthNet.uav[22] utilizationEnergyOverdrawMaintenance 0
scalar OsgEarthNet.uav[22] utilizationCountMissions 46
scalar OsgEarthNet.uav[22] utilizationCountManeuversMission 1138
scalar OsgEarthNet.uav[22] utilizationCountManeuversMaintenance 91
scalar OsgEarthNet.uav[22] utilizationCountChargeState 46
scalar OsgEarthNet.uav[22] utilizationCountOverdrawnAfterMission 0
scalar OsgEarthNet.uav[22] utilizationCountIdleState 45
scalar OsgEarthNet.uav[22] utilizationFail 0
scalar OsgEarthNet.uav[22] simulationTime 259200
scalar OsgEarthNet.uav[23] utilizationSecMission 29740.692175607
scalar OsgEarthNet.uav[23] utilizationSecMaintenance 17237.299824393
scalar OsgEarthNet.uav[23] utilizationSecCharge 174400
scalar OsgEarthNet.uav[23] utilizationSecIdle 37822.007
scalar OsgEarthNet.uav[23] utilizationEnergyMission 141506.63896179
scalar OsgEarthNet.uav[23] utilizationEnergyMaintenance 82053.245341852
scalar OsgEarthNet.uav[23] utilizationEnergyCharge 220236.16308594
scalar OsgEarthNet.uav[23] utilizationEnergyOverdrawMission 0
scalar OsgEarthNet.uav[23] utilizationEnergyOverdrawMaintenance 0
scalar OsgEarthNet.uav[23] utilizationCountMissions 53
scalar OsgEarthNet.uav[23] utilizationCountManeuversMission 854
scalar OsgEarthNet.uav[23] utilizationCountManeuversMaintenance 106
scalar OsgEarthNet.uav[23] utilizationCountChargeState 52
scalar OsgEarthNet.uav[23] utilizationCountOverdrawnAfterMission 0
scalar OsgEarthNet.uav[23] utilizationCountIdleState 52
scalar OsgEarthNet.uav[23] utilizationFail 0
scalar OsgEarthNet.uav[23] simulationTime 259200
scalar OsgEarthNet.uav[24] utilizationSecMission 32026.380064451
scalar OsgEarthNet.uav[24] utilizationSecMaintenance 15966.336349382
scalar OsgEarthNet.uav[24] utilizationSecCharge 181400
scalar OsgEarthNet.uav[24] utilizationSecIdle 29807.282586167
scalar OsgEarthNet.uav[24] utilizationEnergyMission 150949.83062744
scalar OsgEarthNet.uav[24] utilizationEnergyMaintenance 75453.885906219
scalar OsgEarthNet.uav[24] utilizationEnergyCharge 226516.04785156
scalar OsgEarthNet.uav[24] utilizationEnergyOverdrawMission 0
scalar OsgEarthNet.uav[24] utilizationEnergyOverdrawMaintenance 0
scalar OsgEarthNet.uav[24] utilizationCountMissions 56
scalar OsgEarthNet.uav[24] utilizationCountManeuversMission 781
scalar OsgEarthNet.uav[24] utilizationCountManeuversMaintenance 112
scalar OsgEarthNet.uav[24] utilizationCountChargeState 56
scalar OsgEarthNet.uav[24] utilizationCountOverdrawnAfterMission 0
scalar OsgEarthNet.uav[24] utilizationCountIdleState 55
scalar OsgEarthNet.uav[24] utilizationFail 0
scalar OsgEarthNet.uav[24] simulationTime 259200
scalar OsgEarthNet.uav[25] utilizationSecMission 30797.881154543
scalar OsgEarthNet.uav[25] utilizationSecMaintenance 12500.690733511
scalar OsgEarthNet.uav[25] utilizationSecCharge 159789.42511195
scalar OsgEarthNet.uav[25] utilizationSecIdle 56112.002
scalar OsgEarthNet.uav[25] utilizationEnergyMission 152375.6467247
scalar OsgEarthNet.uav[25] utilizationEnergyMaintenance 57987.424373627
scalar OsgEarthNet.uav[25] utilizationEnergyCharge 209090.17236328
scalar OsgEarthNet.uav[25] utilizationEnergyOverdrawMission 0
scalar OsgEarthNet.uav[25] utilizationEnergyOverdrawMaintenance 0
scalar OsgEarthNet.uav[25] utilizationCountMissions 45
scalar OsgEarthNet.uav[25] utilizationCountManeuversMission 1019
scalar OsgEarthNet.uav[25] utilizationCountManeuversMaintenance 90
scalar OsgEarthNet.uav[25] utilizationCountChargeState 45
scalar OsgEarthNet.uav[25] utilizationCountOverdrawnAfterMission 0
scalar OsgEarthNet.uav[25] utilizationCountIdleState 44
scalar OsgEarthNet.uav[25] utilizationFail 0
scalar OsgEarthNet.uav[25] simulationTime 259200
scalar OsgEarthNet.uav[26] utilizationSecMission 30180.535456029
scalar OsgEarthNet.uav[26] utilizationSecMaintenance 14375.037000836
scalar OsgEarthNet.uav[26] utilizationSecCharge 166012.28672999
scalar OsgEarthNet.uav[26] utilizationSecIdle 48632.139813144
scalar OsgEarthNet.uav[26] utilizationEnergyMission 145714.79090881
scalar OsgEarthNet.uav[26] utilizationEnergyMaintenance 67518.761009216
scalar OsgEarthNet.uav[26] utilizationEnergyCharge 212288.59118652
scalar OsgEarthNet.uav[26] utilizationEnergyOverdrawMission 0
scalar OsgEarthNet.uav[26] utilizationEnergyOverdrawMaintenance 0
scalar OsgEarthNet.uav[26] utilizationCountMissions 49
scalar OsgEarthNet.uav[26] utilizationCountManeuversMission 991
scalar OsgEarthNet.uav[26] utilizationCountManeuversMaintenance 98
scalar OsgEarthNet.uav[26] utilizationCountChargeState 49
scalar OsgEarthNet.uav[26] utilizationCountOverdrawnAfterMission 0
scalar OsgEarthNet.uav[26] utilizationCountIdleState 48
scalar OsgEarthNet.uav[26] utilizationFail 0
scalar OsgEarthNet.uav[26] simulationTime 259200
scalar OsgEarthNet.uav[27] utilizationSecMission 31116.699688399
scalar OsgEarthNet.uav[27] utilizationSecMaintenance 14598.2895802
scalar OsgEarthNet.uav[27] utilizationSecCharge 172323.0027314
scalar OsgEarthNet.uav[27] utilizationSecIdle 41162.007
scalar OsgEarthNet.uav[27] utilizationEnergyMission 150657.40068817
scalar OsgEarthNet.uav[27] utilizationEnergyMaintenance 68725.203323364
scalar OsgEarthNet.uav[27] utilizationEnergyCharge 218416.99926758
scalar OsgEarthNet.uav[27] utilizationEnergyOverdrawMission 0
scalar OsgEarthNet.uav[27] utilizationEnergyOverdrawMaintenance 0
scalar OsgEarthNet.uav[27] utilizationCountMissions 52
scalar OsgEarthNet.uav[27] utilizationCountManeuversMission 931
scalar OsgEarthNet.uav[27] utilizationCountManeuversMaintenance 104
scalar OsgEarthNet.uav[27] utilizationCountChargeState 52
scalar OsgEarthNet.uav[27] utilizationCountOverdrawnAfterMission 0
scalar OsgEarthNet.uav[27] utilizationCountIdleState 51
scalar OsgEarthNet.uav[27] utilizationFail 0
scalar OsgEarthNet.uav[27] simulationTime 259200
scalar OsgEarthNet.uav[28] utilizationSecMission 31446.521976676
scalar OsgEarthNet.uav[28] utilizationSecMaintenance 14425.903442857
scalar OsgEarthNet.uav[28] utilizationSecCharge 170098.35396655
scalar OsgEarthNet.uav[28] utilizationSecIdle 43229.219613916
scalar OsgEarthNet.uav[28] utilizationEnergyMission 154126.47179413
scalar OsgEarthNet.uav[28] utilizationEnergyMaintenance 67757.356536865
scalar OsgEarthNet.uav[28] utilizationEnergyCharge 221744.84765625
scalar OsgEarthNet.uav[28] utilizationEnergyOverdrawMission 0
scalar OsgEarthNet.uav[28] utilizationEnergyOverdrawMaintenance 0
scalar OsgEarthNet.uav[28] utilizationCountMissions 48
scalar OsgEarthNet.uav[28] utilizationCountManeuversMission 1080
scalar OsgEarthNet.uav[28] utilizationCountManeuversMaintenance 96
scalar OsgEarthNet.uav[28] utilizationCountChargeState 48
scalar OsgEarthNet.uav[28] utilizationCountOverdrawnAfterMission 0
scalar OsgEarthNet.uav[28] utilizationCountIdleState 47
scalar OsgEarthNet.uav[28] utilizationFail 0
scalar OsgEarthNet.uav[28] simulationTime 259200
scalar OsgEarthNet.uav[29] utilizationSecMission 29515.726347411
scalar OsgEarthNet.uav[29] utilizationSecMaintenance 18288.640047811
scalar OsgEarthNet.uav[29] utilizationSecCharge 181453.62660478
scalar OsgEarthNet.uav[29] utilizationSecIdle 29942.006
scalar OsgEarthNet.uav[29] utilizationEnergyMission 142475.31315994
scalar OsgEarthNet.uav[29] utilizationEnergyMaintenance 86793.066261291
scalar OsgEarthNet.uav[29] utilizationEnergyCharge 231018.97558594
scalar OsgEarthNet.uav[29] utilizationEnergyOverdrawMission 0
scalar OsgEarthNet.uav[29] utilizationEnergyOverdrawMaintenance 0
scalar OsgEarthNet.uav[29] utilizationCountMissions 54
scalar OsgEarthNet.uav[29] utilizationCountManeuversMission 910
scalar OsgEarthNet.uav[29] utilizationCountManeuversMaintenance 108
scalar OsgEarthNet.uav[29] utilizationCountChargeState 54
scalar OsgEarthNet.uav[29] utilizationCountOverdrawnAfterMission 0
scalar OsgEarthNet.uav[29] utilizationCountIdleState 54
scalar OsgEarthNet.uav[29] utilizationFail 0
scalar OsgEarthNet.uav[29] simulationTime 259200
scalar OsgEarthNet.uav[30] utilizationSecMission 31140.364930917
scalar OsgEarthNet.uav[30] utilizationSecMaintenance 18997.634069083
scalar OsgEarthNet.uav[30] utilizationSecCharge 181550
scalar OsgEarthNet.uav[30] utilizationSecIdle 27512
scalar OsgEarthNet.uav[30] utilizationEnergyMission 149991.4275856
scalar OsgEarthNet.uav[30] utilizationEnergyMaintenance 90518.056826713
scalar OsgEarthNet.uav[30] utilizationEnergyCharge 235820.02587891
scalar OsgEarthNet.uav[30] utilizationEnergyOverdrawMission 0
scalar OsgEarthNet.uav[30] utilizationEnergyOverdrawMaintenance 0
scalar OsgEarthNet.uav[30] utilizationCountMissions 53
scalar OsgEarthNet.uav[30] utilizationCountManeuversMission 1003
scalar OsgEarthNet.uav[30] utilizationCountManeuversMaintenance 105
scalar OsgEarthNet.uav[30] utilizationCountChargeState 52
scalar OsgEarthNet.uav[30] utilizationCountOverdrawnAfterMission 0
scalar OsgEarthNet.uav[30] utilizationCountIdleState 44
scalar OsgEarthNet.uav[30] utilizationFail 0
scalar OsgEarthNet.uav[30] simulationTime 259200
scalar OsgEarthNet.uav[31] utilizationSecMission 30898.223208591
scalar OsgEarthNet.uav[31] utilizationSecMaintenance 18028.040707596
scalar OsgEarthNet.uav[31] utilizationSecCharge 185501.73208381
scalar OsgEarthNet.uav[31] utilizationSecIdle 24772.003
scalar OsgEarthNet.uav[31] utilizationEnergyMission 149538.46262741
scalar OsgEarthNet.uav[31] utilizationEnergyMaintenance 85804.488792419
scalar OsgEarthNet.uav[31] utilizationEnergyCharge 231843.77099609
scalar OsgEarthNet.uav[31] utilizationEnergyOverdrawMission 0
scalar OsgEarthNet.uav[31] utilizationEnergyOverdrawMaintenance 0
scalar OsgEarthNet.uav[31] utilizationCountMissions 58
scalar OsgEarthNet.uav[31] utilizationCountManeuversMission 905
scalar OsgEarthNet.uav[31] utilizationCountManeuversMaintenance 116
scalar OsgEarthNet.uav[31] utilizationCountChargeState 58
scalar OsgEarthNet.uav[31] utilizationCountOverdrawnAfterMission 0
scalar OsgEarthNet.uav[31] utilizationCountIdleState 56
scalar OsgEarthNet.uav[31] utilizationFail 0
scalar OsgEarthNet.uav[31] simulationTime 259200
scalar OsgEarthNet.uav[32] utilizationSecMission 32224.65359692
scalar OsgEarthNet.uav[32] utilizationSecMaintenance 13559.620238865
scalar OsgEarthNet.uav[32] utilizationSecCharge 166916.26681613
scalar OsgEarthNet.uav[32] utilizationSecIdle 46499.458348089
scalar OsgEarthNet.uav[32] utilizationEnergyMission 158671.00814056
scalar OsgEarthNet.uav[32] utilizationEnergyMaintenance 62392.610343933
scalar OsgEarthNet.uav[32] utilizationEnergyCharge 216608.83300781
scalar OsgEarthNet.uav[32] utilizationEnergyOverdrawMission 0
scalar OsgEarthNet.uav[32] utilizationEnergyOverdrawMaintenance 0
scalar OsgEarthNet.uav[32] utilizationCountMissions 47
scalar OsgEarthNet.uav[32] utilizationCountManeuversMission 1103
scalar OsgEarthNet.uav[32] utilizationCountManeuversMaintenance 94
scalar OsgEarthNet.uav[32] utilizationCountChargeState 47
scalar OsgEarthNet.uav[32] utilizationCountOverdrawnAfterMission 0
scalar OsgEarthNet.uav[32] utilizationCountIdleState 47
scalar OsgEarthNet.uav[32] utilizationFail 0
scalar OsgEarthNet.uav[32] simulationTime 259200
scalar OsgEarthNet.uav[33] utilizationSecMission 29782.245012855
scalar OsgEarthNet.uav[33] utilizationSecMaintenance 18835.901288876
scalar OsgEarthNet.uav[33] utilizationSecCharge 178729.83969827
scalar OsgEarthNet.uav[33] utilizationSecIdle 31852.013
scalar OsgEarthNet.uav[33] utilizationEnergyMission 144622.15634155
scalar OsgEarthNet.uav[33] utilizationEnergyMaintenance 90051.952205658
scalar OsgEarthNet.uav[33] utilizationEnergyCharge 232631.71484375
scalar OsgEarthNet.uav[33] utilizationEnergyOverdrawMission 0
scalar OsgEarthNet.uav[33] utilizationEnergyOverdrawMaintenance 0
scalar OsgEarthNet.uav[33] utilizationCountMissions 52
scalar OsgEarthNet.uav[33] utilizationCountManeuversMission 973
scalar OsgEarthNet.uav[33] utilizationCountManeuversMaintenance 104
scalar OsgEarthNet.uav[33] utilizationCountChargeState 52
scalar OsgEarthNet.uav[33] utilizationCountOverdrawnAfterMission 0
scalar OsgEarthNet.uav[33] utilizationCountIdleState 46
scalar OsgEarthNet.uav[33] utilizationFail 0
scalar OsgEarthNet.uav[33] simulationTime 259200
scalar OsgEarthNet.uav[34] utilizationSecMission 31290.609285191
scalar OsgEarthNet.uav[34] utilizationSecMaintenance 13719.409370046
scalar OsgEarthNet.uav[34] utilizationSecCharge 166960
scalar OsgEarthNet.uav[34] utilizationSecIdle 47229.980344763
scalar OsgEarthNet.uav[34] utilizationEnergyMission 154058.37479019
scalar OsgEarthNet.uav[34] utilizationEnergyMaintenance 63024.921192169
scalar OsgEarthNet.uav[34] utilizationEnergyCharge 215612.41162109
scalar OsgEarthNet.uav[34] utilizationEnergyOverdrawMission 0
scalar OsgEarthNet.uav[34] utilizationEnergyOverdrawMaintenance 0
scalar OsgEarthNet.uav[34] utilizationCountMissions 47
scalar OsgEarthNet.uav[34] utilizationCountManeuversMission 1036
scalar OsgEarthNet.uav[34] utilizationCountManeuversMaintenance 94
scalar OsgEarthNet.uav[34] utilizationCountChargeState 47
scalar OsgEarthNet.uav[34] utilizationCountOverdrawnAfterMission 0
scalar OsgEarthNet.uav[34] utilizationCountIdleState 48
scalar OsgEarthNet.uav[34] utilizationFail 0
scalar OsgEarthNet.uav[34] simulationTime 259200
scalar OsgEarthNet.uav[35] utilizationSecMission 32085.179646733
scalar OsgEarthNet.uav[35] utilizationSecMaintenance 13765.644242856
scalar OsgEarthNet.uav[35] utilizationSecCharge 166480
scalar OsgEarthNet.uav[35] utilizationSecIdle 46869.175110411
scalar OsgEarthNet.uav[35] utilizationEnergyMission 155594.20675703
scalar OsgEarthNet.uav[35] utilizationEnergyMaintenance 62113.174945831
scalar OsgEarthNet.uav[35] utilizationEnergyCharge 215563.61279297
scalar OsgEarthNet.uav[35] utilizationEnergyOverdrawMission 0
scalar OsgEarthNet.uav[35] utilizationEnergyOverdrawMaintenance 0
scalar OsgEarthNet.uav[35] utilizationCountMissions 47
scalar OsgEarthNet.uav[35] utilizationCountManeuversMission 1031
scalar OsgEarthNet.uav[35] utilizationCountManeuversMaintenance 95
scalar OsgEarthNet.uav[35] utilizationCountChargeState 47
scalar OsgEarthNet.uav[35] utilizationCountOverdrawnAfterMission 0
scalar OsgEarthNet.uav[35] utilizationCountIdleState 47
scalar OsgEarthNet.uav[35] utilizationFail 0
scalar OsgEarthNet.uav[35] simulationTime 259200
scalar OsgEarthNet.uav[36] utilizationSecMission 30168.937252263
scalar OsgEarthNet.uav[36] utilizationSecMaintenance 17434.008304367
scalar OsgEarthNet.uav[36] utilizationSecCharge 182175.04344337
scalar OsgEarthNet.uav[36] utilizationSecIdle 29422.01
scalar OsgEarthNet.uav[36] utilizationEnergyMission 145145.62204742
scalar OsgEarthNet.uav[36] utilizationEnergyMaintenance 83541.54139328
scalar OsgEarthNet.uav[36] utilizationEnergyCharge 227450.86254883
scalar OsgEarthNet.uav[36] utilizationEnergyOverdrawMission 0
scalar OsgEarthNet.uav[36] utilizationEnergyOverdrawMaintenance 0
scalar OsgEarthNet.uav[36] utilizationCountMissions 57
scalar OsgEarthNet.uav[36] utilizationCountManeuversMission 819
scalar OsgEarthNet.uav[36] utilizationCountManeuversMaintenance 114
scalar OsgEarthNet.uav[36] utilizationCountChargeState 57
scalar OsgEarthNet.uav[36] utilizationCountOverdrawnAfterMission 0
scalar OsgEarthNet.uav[36] utilizationCountIdleState 57
scalar OsgEarthNet.uav[36] utilizationFail 0
scalar OsgEarthNet.uav[36] simulationTime 259200
scalar OsgEarthNet.uav[37] utilizationSecMission 29978.716419315
scalar OsgEarthNet.uav[37] utilizationSecMaintenance 18021.26230654
scalar OsgEarthNet.uav[37] utilizationSecCharge 184770
scalar OsgEarthNet.uav[37] utilizationSecIdle 26430.020274145
scalar OsgEarthNet.uav[37] utilizationEnergyMission 144716.54562673
scalar OsgEarthNet.uav[37] utilizationEnergyMaintenance 86799.695659637
scalar OsgEarthNet.uav[37] utilizationEnergyCharge 232664.86206055
scalar OsgEarthNet.uav[37] utilizationEnergyOverdrawMission 0
scalar OsgEarthNet.uav[37] utilizationEnergyOverdrawMaintenance 0
scalar OsgEarthNet.uav[37] utilizationCountMissions 56
scalar OsgEarthNet.uav[37] utilizationCountManeuversMission 972
scalar OsgEarthNet.uav[37] utilizationCountManeuversMaintenance 113
scalar OsgEarthNet.uav[37] utilizationCountChargeState 56
scalar OsgEarthNet.uav[37] utilizationCountOverdrawnAfterMission 0
scalar OsgEarthNet.uav[37] utilizationCountIdleState 55
scalar OsgEarthNet.uav[37] utilizationFail 0
scalar OsgEarthNet.uav[37] simulationTime 259200
scalar OsgEarthNet.uav[38] utilizationSecMission 30918.505860459
scalar OsgEarthNet.uav[38] utilizationSecMaintenance 13906.442365664
scalar OsgEarthNet.uav[38] utilizationSecCharge 166280
scalar OsgEarthNet.uav[38] utilizationSecIdle 48095.050773876
scalar OsgEarthNet.uav[38] utilizationEnergyMission 152182.78004456
scalar OsgEarthNet.uav[38] utilizationEnergyMaintenance 64286.676822662
scalar OsgEarthNet.uav[38] utilizationEnergyCharge 215380.75439453
scalar OsgEarthNet.uav[38] utilizationEnergyOverdrawMission 0
scalar OsgEarthNet.uav[38] utilizationEnergyOverdrawMaintenance 0
scalar OsgEarthNet.uav[38] utilizationCountMissions 47
scalar OsgEarthNet.uav[38] utilizationCountManeuversMission 1046
scalar OsgEarthNet.uav[38] utilizationCountManeuversMaintenance 94
scalar OsgEarthNet.uav[38] utilizationCountChargeState 47
scalar OsgEarthNet.uav[38] utilizationCountOverdrawnAfterMission 0
scalar OsgEarthNet.uav[38] utilizationCountIdleState 47
scalar OsgEarthNet.uav[38] utilizationFail 0
scalar OsgEarthNet.uav[38] simulationTime 259200
scalar OsgEarthNet.uav[39] utilizationSecMission 29554.254452328
scalar OsgEarthNet.uav[39] utilizationSecMaintenance 17137.532020949
scalar OsgEarthNet.uav[39] utilizationSecCharge 175683.5681048
scalar OsgEarthNet.uav[39] utilizationSecIdle 36824.644421923
scalar OsgEarthNet.uav[39] utilizationEnergyMission 139518.69487
scalar OsgEarthNet.uav[39] utilizationEnergyMaintenance 81000.969615936
scalar OsgEarthNet.uav[39] utilizationEnergyCharge 217959.45703125
scalar OsgEarthNet.uav[39] utilizationEnergyOverdrawMission 0
scalar OsgEarthNet.uav[39] utilizationEnergyOverdrawMaintenance 0
scalar OsgEarthNet.uav[39] utilizationCountMissions 56
scalar OsgEarthNet.uav[39] utilizationCountManeuversMission 780
scalar OsgEarthNet.uav[39] utilizationCountManeuversMaintenance 112
scalar OsgEarthNet.uav[39] utilizationCountChargeState 56
scalar OsgEarthNet.uav[39] utilizationCountOverdrawnAfterMission 0
scalar OsgEarthNet.uav[39] utilizationCountIdleState 55
scalar OsgEarthNet.uav[39] utilizationFail 0
scalar OsgEarthNet.uav[39] simulationTime 259200
scalar OsgEarthNet.uav[40] utilizationSecMission 29440.260480035
scalar OsgEarthNet.uav[40] utilizationSecMaintenance 20156.795081636
scalar OsgEarthNet.uav[40] utilizationSecCharge 184271.42977738
scalar OsgEarthNet.uav[40] utilizationSecIdle 25331.51366095
scalar OsgEarthNet.uav[40] utilizationEnergyMission 143165.20083237
scalar OsgEarthNet.uav[40] utilizationEnergyMaintenance 96216.416736603
scalar OsgEarthNet.uav[40] utilizationEnergyCharge 240688.93798828
scalar OsgEarthNet.uav[40] utilizationEnergyOverdrawMission 0
scalar OsgEarthNet.uav[40] utilizationEnergyOverdrawMaintenance 0
scalar OsgEarthNet.uav[40] utilizationCountMissions 53
scalar OsgEarthNet.uav[40] utilizationCountManeuversMission 1051
scalar OsgEarthNet.uav[40] utilizationCountManeuversMaintenance 106
scalar OsgEarthNet.uav[40] utilizationCountChargeState 53
scalar OsgEarthNet.uav[40] utilizationCountOverdrawnAfterMission 0
scalar OsgEarthNet.uav[40] utilizationCountIdleState 47
scalar OsgEarthNet.uav[40] utilizationFail 0
scalar OsgEarthNet.uav[40] simulationTime 259200
scalar OsgEarthNet.uav[41] utilizationSecMission 29752.67086491
scalar OsgEarthNet.uav[41] utilizationSecMaintenance 18721.642044687
scalar OsgEarthNet.uav[41] utilizationSecCharge 185613.6800904
scalar OsgEarthNet.uav[41] utilizationSecIdle 25112.006
scalar OsgEarthNet.uav[41] utilizationEnergyMission 144655.51519012
scalar OsgEarthNet.uav[41] utilizationEnergyMaintenance 88463.662284851
scalar OsgEarthNet.uav[41] utilizationEnergyCharge 232659.0246582
scalar OsgEarthNet.uav[41] utilizationEnergyOverdrawMission 0
scalar OsgEarthNet.uav[41] utilizationEnergyOverdrawMaintenance 0
scalar OsgEarthNet.uav[41] utilizationCountMissions 58
scalar OsgEarthNet.uav[41] utilizationCountManeuversMission 949
scalar OsgEarthNet.uav[41] utilizationCountManeuversMaintenance 116
scalar OsgEarthNet.uav[41] utilizationCountChargeState 58
scalar OsgEarthNet.uav[41] utilizationCountOverdrawnAfterMission 0
scalar OsgEarthNet.uav[41] utilizationCountIdleState 55
scalar OsgEarthNet.uav[41] utilizationFail 0
scalar OsgEarthNet.uav[41] simulationTime 259200
scalar OsgEarthNet.uav[42] utilizationSecMission 32869.700877453
scalar OsgEarthNet.uav[42] utilizationSecMaintenance 13499.295675593
scalar OsgEarthNet.uav[42] utilizationSecCharge 171410
scalar OsgEarthNet.uav[42] utilizationSecIdle 41421.002446954
scalar OsgEarthNet.uav[42] utilizationEnergyMission 158922.35954285
scalar OsgEarthNet.uav[42] utilizationEnergyMaintenance 61932.230804443
scalar OsgEarthNet.uav[42] utilizationEnergyCharge 221791.1328125
scalar OsgEarthNet.uav[42] utilizationEnergyOverdrawMission 0
scalar OsgEarthNet.uav[42] utilizationEnergyOverdrawMaintenance 0
scalar OsgEarthNet.uav[42] utilizationCountMissions 48
scalar OsgEarthNet.uav[42] utilizationCountManeuversMission 1031
scalar OsgEarthNet.uav[42] utilizationCountManeuversMaintenance 96
scalar OsgEarthNet.uav[42] utilizationCountChargeState 48
scalar OsgEarthNet.uav[42] utilizationCountOverdrawnAfterMission 0
scalar OsgEarthNet.uav[42] utilizationCountIdleState 49
scalar OsgEarthNet.uav[42] utilizationFail 0
scalar OsgEarthNet.uav[42] simulationTime 259200
scalar OsgEarthNet.uav[43] utilizationSecMission 29910.582070039
scalar OsgEarthNet.uav[43] utilizationSecMaintenance 18178.458001782
scalar OsgEarthNet.uav[43] utilizationSecCharge 184468.95492818
scalar OsgEarthNet.uav[43] utilizationSecIdle 26642.004
scalar OsgEarthNet.uav[43] utilizationEnergyMission 144137.73410797
scalar OsgEarthNet.uav[43] utilizationEnergyMaintenance 85631.393230438
scalar OsgEarthNet.uav[43] utilizationEnergyCharge 230539.43432617
scalar OsgEarthNet.uav[43] utilizationEnergyOverdrawMission 0
scalar OsgEarthNet.uav[43] utilizationEnergyOverdrawMaintenance 0
scalar OsgEarthNet.uav[43] utilizationCountMissions 57
scalar OsgEarthNet.uav[43] utilizationCountManeuversMission 901
scalar OsgEarthNet.uav[43] utilizationCountManeuversMaintenance 114
scalar OsgEarthNet.uav[43] utilizationCountChargeState 57
scalar OsgEarthNet.uav[43] utilizationCountOverdrawnAfterMission 0
scalar OsgEarthNet.uav[43] utilizationCountIdleState 57
scalar OsgEarthNet.uav[43] utilizationFail 0
scalar OsgEarthNet.uav[43] simulationTime 259200
scalar OsgEarthNet.uav[44] utilizationSecMission 31197.201504275
scalar OsgEarthNet.uav[44] utilizationSecMaintenance 12857.353407034
scalar OsgEarthNet.uav[44] utilizationSecCharge 163730
scalar OsgEarthNet.uav[44] utilizationSecIdle 51415.444088691
scalar OsgEarthNet.uav[44] utilizationEnergyMission 150168.02339002
scalar OsgEarthNet.uav[44] utilizationEnergyMaintenance 59866.457145691
scalar OsgEarthNet.uav[44] utilizationEnergyCharge 211668.69677734
scalar OsgEarthNet.uav[44] utilizationEnergyOverdrawMission 0
scalar OsgEarthNet.uav[44] utilizationEnergyOverdrawMaintenance 0
scalar OsgEarthNet.uav[44] utilizationCountMissions 46
scalar OsgEarthNet.uav[44] utilizationCountManeuversMission 1044
scalar OsgEarthNet.uav[44] utilizationCountManeuversMaintenance 93
scalar OsgEarthNet.uav[44] utilizationCountChargeState 46
scalar OsgEarthNet.uav[44] utilizationCountOverdrawnAfterMission 0
scalar OsgEarthNet.uav[44] utilizationCountIdleState 47
scalar OsgEarthNet.uav[44] utilizationFail 0
scalar OsgEarthNet.uav[44] simulationTime 259200
scalar OsgEarthNet.uav[45] utilizationSecMission 32931.66486685
scalar OsgEarthNet.uav[45] utilizationSecMaintenance 12219.558932004
scalar OsgEarthNet.uav[45] utilizationSecCharge 161966.77520115
scalar OsgEarthNet.uav[45] utilizationSecIdle 52082
scalar OsgEarthNet.uav[45] utilizationEnergyMission 156217.63407598
scalar OsgEarthNet.uav[45] utilizationEnergyMaintenance 56403.31855011
scalar OsgEarthNet.uav[45] utilizationEnergyCharge 210565.82592773
scalar OsgEarthNet.uav[45] utilizationEnergyOverdrawMission 0
scalar OsgEarthNet.uav[45] utilizationEnergyOverdrawMaintenance 0
scalar OsgEarthNet.uav[45] utilizationCountMissions 46
scalar OsgEarthNet.uav[45] utilizationCountManeuversMission 830
scalar OsgEarthNet.uav[45] utilizationCountManeuversMaintenance 91
scalar OsgEarthNet.uav[45] utilizationCountChargeState 46
scalar OsgEarthNet.uav[45] utilizationCountOverdrawnAfterMission 0
scalar OsgEarthNet.uav[45] utilizationCountIdleState 45
scalar OsgEarthNet.uav[45] utilizationFail 0
scalar OsgEarthNet.uav[45] simulationTime 259200
scalar OsgEarthNet.uav[46] utilizationSecMission 30580.697653283
scalar OsgEarthNet.uav[46] utilizationSecMaintenance 14007.287346717
scalar OsgEarthNet.uav[46] utilizationSecCharge 163470
scalar OsgEarthNet.uav[46] utilizationSecIdle 51142.014
scalar OsgEarthNet.uav[46] utilizationEnergyMission 146752.09088898
scalar OsgEarthNet.uav[46] utilizationEnergyMaintenance 64527.41230534
scalar OsgEarthNet.uav[46] utilizationEnergyCharge 209402.16259766
scalar OsgEarthNet.uav[46] utilizationEnergyOverdrawMission 0
scalar OsgEarthNet.uav[46] utilizationEnergyOverdrawMaintenance 0
scalar OsgEarthNet.uav[46] utilizationCountMissions 48
scalar OsgEarthNet.uav[46] utilizationCountManeuversMission 872
scalar OsgEarthNet.uav[46] utilizationCountManeuversMaintenance 96
scalar OsgEarthNet.uav[46] utilizationCountChargeState 47
scalar OsgEarthNet.uav[46] utilizationCountOverdrawnAfterMission 0
scalar OsgEarthNet.uav[46] utilizationCountIdleState 48
scalar OsgEarthNet.uav[46] utilizationFail 0
scalar OsgEarthNet.uav[46] simulationTime 259200
scalar OsgEarthNet.uav[47] utilizationSecMission 31784.373465075
scalar OsgEarthNet.uav[47] utilizationSecMaintenance 17597.018839677
scalar OsgEarthNet.uav[47] utilizationSecCharge 185906.60269525
scalar OsgEarthNet.uav[47] utilizationSecIdle 23912.004
scalar OsgEarthNet.uav[47] utilizationEnergyMission 153640.89469147
scalar OsgEarthNet.uav[47] utilizationEnergyMaintenance 82707.324615478
scalar OsgEarthNet.uav[47] utilizationEnergyCharge 234555.23583984
scalar OsgEarthNet.uav[47] utilizationEnergyOverdrawMission 0
scalar OsgEarthNet.uav[47] utilizationEnergyOverdrawMaintenance 0
scalar OsgEarthNet.uav[47] utilizationCountMissions 56
scalar OsgEarthNet.uav[47] utilizationCountManeuversMission 989
scalar OsgEarthNet.uav[47] utilizationCountManeuversMaintenance 112
scalar OsgEarthNet.uav[47] utilizationCountChargeState 56
scalar OsgEarthNet.uav[47] utilizationCountOverdrawnAfterMission 0
scalar OsgEarthNet.uav[47] utilizationCountIdleState 55
scalar OsgEarthNet.uav[47] utilizationFail 0
scalar OsgEarthNet.uav[47] simulationTime 259200
scalar OsgEarthNet.uav[48] utilizationSecMission 31626.435659711
scalar OsgEarthNet.uav[48] utilizationSecMaintenance 13529.940355624
scalar OsgEarthNet.uav[48] utilizationSecCharge 167080
scalar OsgEarthNet.uav[48] utilizationSecIdle 46963.622984666
scalar OsgEarthNet.uav[48] utilizationEnergyMission 156243.16484451
scalar OsgEarthNet.uav[48] utilizationEnergyMaintenance 62407.232803345
scalar OsgEarthNet.uav[48] utilizationEnergyCharge 216419.10058594
scalar OsgEarthNet.uav[48] utilizationEnergyOverdrawMission 0
scalar OsgEarthNet.uav[48] utilizationEnergyOverdrawMaintenance 0
scalar OsgEarthNet.uav[48] utilizationCountMissions 47
scalar OsgEarthNet.uav[48] utilizationCountManeuversMission 1073
scalar OsgEarthNet.uav[48] utilizationCountManeuversMaintenance 94
scalar OsgEarthNet.uav[48] utilizationCountChargeState 47
scalar OsgEarthNet.uav[48] utilizationCountOverdrawnAfterMission 0
scalar OsgEarthNet.uav[48] utilizationCountIdleState 47
scalar OsgEarthNet.uav[48] utilizationFail 0
scalar OsgEarthNet.uav[48] simulationTime 259200
scalar OsgEarthNet.uav[49] utilizationSecMission 31224.745623176
scalar OsgEarthNet.uav[49] utilizationSecMaintenance 18081.052508472
scalar OsgEarthNet.uav[49] utilizationSecCharge 178808.93029423
scalar OsgEarthNet.uav[49] utilizationSecIdle 31085.270574118
scalar OsgEarthNet.uav[49] utilizationEnergyMission 151434.76850128
scalar OsgEarthNet.uav[49] utilizationEnergyMaintenance 86001.896511078
scalar OsgEarthNet.uav[49] utilizationEnergyCharge 232274.04437256
scalar OsgEarthNet.uav[49] utilizationEnergyOverdrawMission 0
scalar OsgEarthNet.uav[49] utilizationEnergyOverdrawMaintenance 0
scalar OsgEarthNet.uav[49] utilizationCountMissions 52
scalar OsgEarthNet.uav[49] utilizationCountManeuversMission 941
scalar OsgEarthNet.uav[49] utilizationCountManeuversMaintenance 104
scalar OsgEarthNet.uav[49] utilizationCountChargeState 52
scalar OsgEarthNet.uav[49] utilizationCountOverdrawnAfterMission 0
scalar OsgEarthNet.uav[49] utilizationCountIdleState 45
scalar OsgEarthNet.uav[49] utilizationFail 0
scalar OsgEarthNet.uav[49] simulationTime 259200
scalar OsgEarthNet.uav[50] utilizationSecMission 32560.573566143
scalar OsgEarthNet.uav[50] utilizationSecMaintenance 12397.633979324
scalar OsgEarthNet.uav[50] utilizationSecCharge 161730.11450996
scalar OsgEarthNet.uav[50] utilizationSecIdle 52511.676944575
scalar OsgEarthNet.uav[50] utilizationEnergyMission 155509.48527145
scalar OsgEarthNet.uav[50] utilizationEnergyMaintenance 56884.309158325
scalar OsgEarthNet.uav[50] utilizationEnergyCharge 209990.64526367
scalar OsgEarthNet.uav[50] utilizationEnergyOverdrawMission 0
scalar OsgEarthNet.uav[50] utilizationEnergyOverdrawMaintenance 0
scalar OsgEarthNet.uav[50] utilizationCountMissions 46
scalar OsgEarthNet.uav[50] utilizationCountManeuversMission 986
scalar OsgEarthNet.uav[50] utilizationCountManeuversMaintenance 92
scalar OsgEarthNet.uav[50] utilizationCountChargeState 46
scalar OsgEarthNet.uav[50] utilizationCountOverdrawnAfterMission 0
scalar OsgEarthNet.uav[50] utilizationCountIdleState 46
scalar OsgEarthNet.uav[50] utilizationFail 0
scalar OsgEarthNet.uav[50] simulationTime 259200
scalar OsgEarthNet.uav[51] utilizationSecMission 29746.417966133
scalar OsgEarthNet.uav[51] utilizationSecMaintenance 18774.298507783
scalar OsgEarthNet.uav[51] utilizationSecCharge 185884.67063657
scalar OsgEarthNet.uav[51] utilizationSecIdle 24794.611889516
scalar OsgEarthNet.uav[51] utilizationEnergyMission 143457.48620605
scalar OsgEarthNet.uav[51] utilizationEnergyMaintenance 89122.412410736
scalar OsgEarthNet.uav[51] utilizationEnergyCharge 229995.01049805
scalar OsgEarthNet.uav[51] utilizationEnergyOverdrawMission 0
scalar OsgEarthNet.uav[51] utilizationEnergyOverdrawMaintenance 0
scalar OsgEarthNet.uav[51] utilizationCountMissions 60
scalar OsgEarthNet.uav[51] utilizationCountManeuversMission 843
scalar OsgEarthNet.uav[51] utilizationCountManeuversMaintenance 120
scalar OsgEarthNet.uav[51] utilizationCountChargeState 60
scalar OsgEarthNet.uav[51] utilizationCountOverdrawnAfterMission 0
scalar OsgEarthNet.uav[51] utilizationCountIdleState 55
scalar OsgEarthNet.uav[51] utilizationFail 0
scalar OsgEarthNet.uav[51] simulationTime 259200
scalar OsgEarthNet.uav[52] utilizationSecMission 33044.696499736
scalar OsgEarthNet.uav[52] utilizationSecMaintenance 13647.015047365
scalar OsgEarthNet.uav[52] utilizationSecCharge 170379.4392909
scalar OsgEarthNet.uav[52] utilizationSecIdle 42128.848161997
scalar OsgEarthNet.uav[52] utilizationEnergyMission 160002.40732956
scalar OsgEarthNet.uav[52] utilizationEnergyMaintenance 63602.812644959
scalar OsgEarthNet.uav[52] utilizationEnergyCharge 221817.55810547
scalar OsgEarthNet.uav[52] utilizationEnergyOverdrawMission 0
scalar OsgEarthNet.uav[52] utilizationEnergyOverdrawMaintenance 0
scalar OsgEarthNet.uav[52] utilizationCountMissions 48
scalar OsgEarthNet.uav[52] utilizationCountManeuversMission 1072
scalar OsgEarthNet.uav[52] utilizationCountManeuversMaintenance 96
scalar OsgEarthNet.uav[52] utilizationCountChargeState 48
scalar OsgEarthNet.uav[52] utilizationCountOverdrawnAfterMission 0
scalar OsgEarthNet.uav[52] utilizationCountIdleState 48
scalar OsgEarthNet.uav[52] utilizationFail 0
scalar OsgEarthNet.uav[52] simulationTime 259200
scalar OsgEarthNet.uav[53] utilizationSecMission 31227.137158418
scalar OsgEarthNet.uav[53] utilizationSecMaintenance 16794.105114962
scalar OsgEarthNet.uav[53] utilizationSecCharge 175872.23384811
scalar OsgEarthNet.uav[53] utilizationSecIdle 35306.522878507
scalar OsgEarthNet.uav[53] utilizationEnergyMission 148766.23553848
scalar OsgEarthNet.uav[53] utilizationEnergyMaintenance 80177.815616607
scalar OsgEarthNet.uav[53] utilizationEnergyCharge 228348.12939453
scalar OsgEarthNet.uav[53] utilizationEnergyOverdrawMission 0
scalar OsgEarthNet.uav[53] utilizationEnergyOverdrawMaintenance 0
scalar OsgEarthNet.uav[53] utilizationCountMissions 50
scalar OsgEarthNet.uav[53] utilizationCountManeuversMission 854
scalar OsgEarthNet.uav[53] utilizationCountManeuversMaintenance 100
scalar OsgEarthNet.uav[53] utilizationCountChargeState 50
scalar OsgEarthNet.uav[53] utilizationCountOverdrawnAfterMission 0
scalar OsgEarthNet.uav[53] utilizationCountIdleState 49
scalar OsgEarthNet.uav[53] utilizationFail 0
scalar OsgEarthNet.uav[53] simulationTime 259200
scalar OsgEarthNet.uav[54] utilizationSecMission 31015.668005304
scalar OsgEarthNet.uav[54] utilizationSecMaintenance 17630.166982078
scalar OsgEarthNet.uav[54] utilizationSecCharge 184143.10621742
scalar OsgEarthNet.uav[54] utilizationSecIdle 26411.057795193
scalar OsgEarthNet.uav[54] utilizationEnergyMission 150332.19303131
scalar OsgEarthNet.uav[54] utilizationEnergyMaintenance 83747.810405731
scalar OsgEarthNet.uav[54] utilizationEnergyCharge 232301.38208008
scalar OsgEarthNet.uav[54] utilizationEnergyOverdrawMission 0
scalar OsgEarthNet.uav[54] utilizationEnergyOverdrawMaintenance 0
scalar OsgEarthNet.uav[54] utilizationCountMissions 56
scalar OsgEarthNet.uav[54] utilizationCountManeuversMission 942
scalar OsgEarthNet.uav[54] utilizationCountManeuversMaintenance 112
scalar OsgEarthNet.uav[54] utilizationCountChargeState 56
scalar OsgEarthNet.uav[54] utilizationCountOverdrawnAfterMission 0
scalar OsgEarthNet.uav[54] utilizationCountIdleState 56
scalar OsgEarthNet.uav[54] utilizationFail 0
scalar OsgEarthNet.uav[54] simulationTime 259200
scalar OsgEarthNet.uav[55] utilizationSecMission 33840.05736332
scalar OsgEarthNet.uav[55] utilizationSecMaintenance 13068.993497983
scalar OsgEarthNet.uav[55] utilizationSecCharge 168318.9461387
scalar OsgEarthNet.uav[55] utilizationSecIdle 43972.002
scalar OsgEarthNet.uav[55] utilizationEnergyMission 163314.89547348
scalar OsgEarthNet.uav[55] utilizationEnergyMaintenance 60351.612701416
scalar OsgEarthNet.uav[55] utilizationEnergyCharge 218323.54089355
scalar OsgEarthNet.uav[55] utilizationEnergyOverdrawMission 0
scalar OsgEarthNet.uav[55] utilizationEnergyOverdrawMaintenance 0
scalar OsgEarthNet.uav[55] utilizationCountMissions 48
scalar OsgEarthNet.uav[55] utilizationCountManeuversMission 964
scalar OsgEarthNet.uav[55] utilizationCountManeuversMaintenance 96
scalar OsgEarthNet.uav[55] utilizationCountChargeState 48
scalar OsgEarthNet.uav[55] utilizationCountOverdrawnAfterMission 0
scalar OsgEarthNet.uav[55] utilizationCountIdleState 47
scalar OsgEarthNet.uav[55] utilizationFail 0
scalar OsgEarthNet.uav[55] simulationTime 259200
scalar OsgEarthNet.uav[56] utilizationSecMission 30001.103782774
scalar OsgEarthNet.uav[56] utilizationSecMaintenance 19506.395209985
scalar OsgEarthNet.uav[56] utilizationSecCharge 183270.49100724
scalar OsgEarthNet.uav[56] utilizationSecIdle 26422.009
scalar OsgEarthNet.uav[56] utilizationEnergyMission 146599.48382568
scalar OsgEarthNet.uav[56] utilizationEnergyMaintenance 92753.456325531
scalar OsgEarthNet.uav[56] utilizationEnergyCharge 237993.69946289
scalar OsgEarthNet.uav[56] utilizationEnergyOverdrawMission 0
scalar OsgEarthNet.uav[56] utilizationEnergyOverdrawMaintenance 0
scalar OsgEarthNet.uav[56] utilizationCountMissions 53
scalar OsgEarthNet.uav[56] utilizationCountManeuversMission 1019
scalar OsgEarthNet.uav[56] utilizationCountManeuversMaintenance 106
scalar OsgEarthNet.uav[56] utilizationCountChargeState 53
scalar OsgEarthNet.uav[56] utilizationCountOverdrawnAfterMission 0
scalar OsgEarthNet.uav[56] utilizationCountIdleState 44
scalar OsgEarthNet.uav[56] utilizationFail 0
scalar OsgEarthNet.uav[56] simulationTime 259200
scalar OsgEarthNet.uav[57] utilizationSecMission 31486.791303039
scalar OsgEarthNet.uav[57] utilizationSecMaintenance 16687.202457064
scalar OsgEarthNet.uav[57] utilizationSecCharge 182980
scalar OsgEarthNet.uav[57] utilizationSecIdle 28046.005239897
scalar OsgEarthNet.uav[57] utilizationEnergyMission 148492.53717804
scalar OsgEarthNet.uav[57] utilizationEnergyMaintenance 79260.891430382
scalar OsgEarthNet.uav[57] utilizationEnergyCharge 228342.83569336
scalar OsgEarthNet.uav[57] utilizationEnergyOverdrawMission 0
scalar OsgEarthNet.uav[57] utilizationEnergyOverdrawMaintenance 0
scalar OsgEarthNet.uav[57] utilizationCountMissions 57
scalar OsgEarthNet.uav[57] utilizationCountManeuversMission 802
scalar OsgEarthNet.uav[57] utilizationCountManeuversMaintenance 115
scalar OsgEarthNet.uav[57] utilizationCountChargeState 57
scalar OsgEarthNet.uav[57] utilizationCountOverdrawnAfterMission 0
scalar OsgEarthNet.uav[57] utilizationCountIdleState 57
scalar OsgEarthNet.uav[57] utilizationFail 0
scalar OsgEarthNet.uav[57] simulationTime 259200
scalar OsgEarthNet.uav[58] utilizationSecMission 31214.86513529
scalar OsgEarthNet.uav[58] utilizationSecMaintenance 14044.005194584
scalar OsgEarthNet.uav[58] utilizationSecCharge 165799.12767013
scalar OsgEarthNet.uav[58] utilizationSecIdle 48142.001
scalar OsgEarthNet.uav[58] utilizationEnergyMission 152135.10335159
scalar OsgEarthNet.uav[58] utilizationEnergyMaintenance 64727.308963776
scalar OsgEarthNet.uav[58] utilizationEnergyCharge 215559.18457031
scalar OsgEarthNet.uav[58] utilizationEnergyOverdrawMission 0
scalar OsgEarthNet.uav[58] utilizationEnergyOverdrawMaintenance 0
scalar OsgEarthNet.uav[58] utilizationCountMissions 47
scalar OsgEarthNet.uav[58] utilizationCountManeuversMission 1002
scalar OsgEarthNet.uav[58] utilizationCountManeuversMaintenance 94
scalar OsgEarthNet.uav[58] utilizationCountChargeState 47
scalar OsgEarthNet.uav[58] utilizationCountOverdrawnAfterMission 0
scalar OsgEarthNet.uav[58] utilizationCountIdleState 46
scalar OsgEarthNet.uav[58] utilizationFail 0
scalar OsgEarthNet.uav[58] simulationTime 259200
scalar OsgEarthNet.uav[59] utilizationSecMission 30656.437490716
scalar OsgEarthNet.uav[59] utilizationSecMaintenance 18570.795543945
scalar OsgEarthNet.uav[59] utilizationSecCharge 181690
scalar OsgEarthNet.uav[59] utilizationSecIdle 28282.765965339
scalar OsgEarthNet.uav[59] utilizationEnergyMission 148954.50910924
scalar OsgEarthNet.uav[59] utilizationEnergyMaintenance 88596.904506683
scalar OsgEarthNet.uav[59] utilizationEnergyCharge 235882.43164062
scalar OsgEarthNet.uav[59] utilizationEnergyOverdrawMission 0
scalar OsgEarthNet.uav[59] utilizationEnergyOverdrawMaintenance 0
scalar OsgEarthNet.uav[59] utilizationCountMissions 52
scalar OsgEarthNet.uav[59] utilizationCountManeuversMission 958
scalar OsgEarthNet.uav[59] utilizationCountManeuversMaintenance 105
scalar OsgEarthNet.uav[59] utilizationCountChargeState 52
scalar OsgEarthNet.uav[59] utilizationCountOverdrawnAfterMission 0
scalar OsgEarthNet.uav[59] utilizationCountIdleState 48
scalar OsgEarthNet.uav[59] utilizationFail 0
scalar OsgEarthNet.uav[59] simulationTime 259200
scalar OsgEarthNet.uav[60] utilizationSecMission 30062.135937776
scalar OsgEarthNet.uav[60] utilizationSecMaintenance 19461.394532923
scalar OsgEarthNet.uav[60] utilizationSecCharge 181204.4635293
scalar OsgEarthNet.uav[60] utilizationSecIdle 28472.005
scalar OsgEarthNet.uav[60] utilizationEnergyMission 145772.17413712
scalar OsgEarthNet.uav[60] utilizationEnergyMaintenance 92171.767940521
scalar OsgEarthNet.uav[60] utilizationEnergyCharge 235157.70471191
scalar OsgEarthNet.uav[60] utilizationEnergyOverdrawMission 0
scalar OsgEarthNet.uav[60] utilizationEnergyOverdrawMaintenance 0
scalar OsgEarthNet.uav[60] utilizationCountMissions 53
scalar OsgEarthNet.uav[60] utilizationCountManeuversMission 1004
scalar OsgEarthNet.uav[60] utilizationCountManeuversMaintenance 106
scalar OsgEarthNet.uav[60] utilizationCountChargeState 53
scalar OsgEarthNet.uav[60] utilizationCountOverdrawnAfterMission 0
scalar OsgEarthNet.uav[60] utilizationCountIdleState 47
scalar OsgEarthNet.uav[60] utilizationFail 0
scalar OsgEarthNet.uav[60] simulationTime 259200
scalar OsgEarthNet.uav[61] utilizationSecMission 32109.789289294
scalar OsgEarthNet.uav[61] utilizationSecMaintenance 16094.386972864
scalar OsgEarthNet.uav[61] utilizationSecCharge 184107.46913496
scalar OsgEarthNet.uav[61] utilizationSecIdle 26888.353602879
scalar OsgEarthNet.uav[61] utilizationEnergyMission 155158.04563141
scalar OsgEarthNet.uav[61] utilizationEnergyMaintenance 76315.346843719
scalar OsgEarthNet.uav[61] utilizationEnergyCharge 232906.30932617
scalar OsgEarthNet.uav[61] utilizationEnergyOverdrawMission 0
scalar OsgEarthNet.uav[61] utilizationEnergyOverdrawMaintenance 0
scalar OsgEarthNet.uav[61] utilizationCountMissions 56
scalar OsgEarthNet.uav[61] utilizationCountManeuversMission 824
scalar OsgEarthNet.uav[61] utilizationCountManeuversMaintenance 112
scalar OsgEarthNet.uav[61] utilizationCountChargeState 56
scalar OsgEarthNet.uav[61] utilizationCountOverdrawnAfterMission 0
scalar OsgEarthNet.uav[61] utilizationCountIdleState 54
scalar OsgEarthNet.uav[61] utilizationFail 0
scalar OsgEarthNet.uav[61] simulationTime 259200
scalar OsgEarthNet.uav[62] utilizationSecMission 33077.70960352
scalar OsgEarthNet.uav[62] utilizationSecMaintenance 12342.864049189
scalar OsgEarthNet.uav[62] utilizationSecCharge 163420
scalar OsgEarthNet.uav[62] utilizationSecIdle 50359.42534729
scalar OsgEarthNet.uav[62] utilizationEnergyMission 159432.99362564
scalar OsgEarthNet.uav[62] utilizationEnergyMaintenance 56453.040545964
scalar OsgEarthNet.uav[62] utilizationEnergyCharge 211042.47900391
scalar OsgEarthNet.uav[62] utilizationEnergyOverdrawMission 0
scalar OsgEarthNet.uav[62] utilizationEnergyOverdrawMaintenance 0
scalar OsgEarthNet.uav[62] utilizationCountMissions 47
scalar OsgEarthNet.uav[62] utilizationCountManeuversMission 1033
scalar OsgEarthNet.uav[62] utilizationCountManeuversMaintenance 94
scalar OsgEarthNet.uav[62] utilizationCountChargeState 46
scalar OsgEarthNet.uav[62] utilizationCountOverdrawnAfterMission 0
scalar OsgEarthNet.uav[62] utilizationCountIdleState 46
scalar OsgEarthNet.uav[62] utilizationFail 0
scalar OsgEarthNet.uav[62] simulationTime 259200
scalar OsgEarthNet.uav[63] utilizationSecMission 31134.820968507
scalar OsgEarthNet.uav[63] utilizationSecMaintenance 14430.800222399
scalar OsgEarthNet.uav[63] utilizationSecCharge 170183.42855343
scalar OsgEarthNet.uav[63] utilizationSecIdle 43450.949255665
scalar OsgEarthNet.uav[63] utilizationEnergyMission 154977.83899689
scalar OsgEarthNet.uav[63] utilizationEnergyMaintenance 67034.433696747
scalar OsgEarthNet.uav[63] utilizationEnergyCharge 220549.45166016
scalar OsgEarthNet.uav[63] utilizationEnergyOverdrawMission 0
scalar OsgEarthNet.uav[63] utilizationEnergyOverdrawMaintenance 0
scalar OsgEarthNet.uav[63] utilizationCountMissions 48
scalar OsgEarthNet.uav[63] utilizationCountManeuversMission 1170
scalar OsgEarthNet.uav[63] utilizationCountManeuversMaintenance 96
scalar OsgEarthNet.uav[63] utilizationCountChargeState 48
scalar OsgEarthNet.uav[63] utilizationCountOverdrawnAfterMission 0
scalar OsgEarthNet.uav[63] utilizationCountIdleState 48
scalar OsgEarthNet.uav[63] utilizationFail 0
scalar OsgEarthNet.uav[63] simulationTime 259200
scalar OsgEarthNet.uav[64] utilizationSecMission 33536.214033367
scalar OsgEarthNet.uav[64] utilizationSecMaintenance 14228.775404519
scalar OsgEarthNet.uav[64] utilizationSecCharge 172783.00856211
scalar OsgEarthNet.uav[64] utilizationSecIdle 38652.001
scalar OsgEarthNet.uav[64] utilizationEnergyMission 160585.15664673
scalar OsgEarthNet.uav[64] utilizationEnergyMaintenance 65331.557231903
scalar OsgEarthNet.uav[64] utilizationEnergyCharge 224469.56982422
scalar OsgEarthNet.uav[64] utilizationEnergyOverdrawMission 0
scalar OsgEarthNet.uav[64] utilizationEnergyOverdrawMaintenance 0
scalar OsgEarthNet.uav[64] utilizationCountMissions 49
scalar OsgEarthNet.uav[64] utilizationCountManeuversMission 993
scalar OsgEarthNet.uav[64] utilizationCountManeuversMaintenance 98
scalar OsgEarthNet.uav[64] utilizationCountChargeState 49
scalar OsgEarthNet.uav[64] utilizationCountOverdrawnAfterMission 0
scalar OsgEarthNet.uav[64] utilizationCountIdleState 49
scalar OsgEarthNet.uav[64] utilizationFail 0
scalar OsgEarthNet.uav[64] simulationTime 259200
scalar OsgEarthNet.uav[65] utilizationSecMission 32240.516918769
scalar OsgEarthNet.uav[65] utilizationSecMaintenance 13575.378182633
scalar OsgEarthNet.uav[65] utilizationSecCharge 170460
scalar OsgEarthNet.uav[65] utilizationSecIdle 42924.103898598
scalar OsgEarthNet.uav[65] utilizationEnergyMission 156986.46238708
scalar OsgEarthNet.uav[65] utilizationEnergyMaintenance 61965.328765869
scalar OsgEarthNet.uav[65] utilizationEnergyCharge 221640.30273438
scalar OsgEarthNet.uav[65] utilizationEnergyOverdrawMission 0
scalar OsgEarthNet.uav[65] utilizationEnergyOverdrawMaintenance 0
scalar OsgEarthNet.uav[65] utilizationCountMissions 48
scalar OsgEarthNet.uav[65] utilizationCountManeuversMission 1114
scalar OsgEarthNet.uav[65] utilizationCountManeuversMaintenance 96
scalar OsgEarthNet.uav[65] utilizationCountChargeState 48
scalar OsgEarthNet.uav[65] utilizationCountOverdrawnAfterMission 0
scalar OsgEarthNet.uav[65] utilizationCountIdleState 48
scalar OsgEarthNet.uav[65] utilizationFail 0
scalar OsgEarthNet.uav[65] simulationTime 259200
scalar OsgEarthNet.uav[66] utilizationSecMission 33240.936915748
scalar OsgEarthNet.uav[66] utilizationSecMaintenance 12635.234169303
scalar OsgEarthNet.uav[66] utilizationSecCharge 169050
scalar OsgEarthNet.uav[66] utilizationSecIdle 44273.827914948
scalar OsgEarthNet.uav[66] utilizationEnergyMission 160468.26823044
scalar OsgEarthNet.uav[66] utilizationEnergyMaintenance 59032.436126709
scalar OsgEarthNet.uav[66] utilizationEnergyCharge 219496.47265625
scalar OsgEarthNet.uav[66] utilizationEnergyOverdrawMission 0
scalar OsgEarthNet.uav[66] utilizationEnergyOverdrawMaintenance 0
scalar OsgEarthNet.uav[66] utilizationCountMissions 47
scalar OsgEarthNet.uav[66] utilizationCountManeuversMission 903
scalar OsgEarthNet.uav[66] utilizationCountManeuversMaintenance 94
scalar OsgEarthNet.uav[66] utilizationCountChargeState 47
scalar OsgEarthNet.uav[66] utilizationCountOverdrawnAfterMission 0
scalar OsgEarthNet.uav[66] utilizationCountIdleState 48
scalar OsgEarthNet.uav[66] utilizationFail 0
scalar OsgEarthNet.uav[66] simulationTime 259200
scalar OsgEarthNet.uav[67] utilizationSecMission 31255.978962736
scalar OsgEarthNet.uav[67] utilizationSecMaintenance 17741.120300934
scalar OsgEarthNet.uav[67] utilizationSecCharge 185680.89973633
scalar OsgEarthNet.uav[67] utilizationSecIdle 24522
scalar OsgEarthNet.uav[67] utilizationEnergyMission 148726.35003662
scalar OsgEarthNet.uav[67] utilizationEnergyMaintenance 84634.570438385
scalar OsgEarthNet.uav[67] utilizationEnergyCharge 230263.99145508
scalar OsgEarthNet.uav[67] utilizationEnergyOverdrawMission 0
scalar OsgEarthNet.uav[67] utilizationEnergyOverdrawMaintenance 0
scalar OsgEarthNet.uav[67] utilizationCountMissions 59
scalar OsgEarthNet.uav[67] utilizationCountManeuversMission 842
scalar OsgEarthNet.uav[67] utilizationCountManeuversMaintenance 118
scalar OsgEarthNet.uav[67] utilizationCountChargeState 59
scalar OsgEarthNet.uav[67] utilizationCountOverdrawnAfterMission 0
scalar OsgEarthNet.uav[67] utilizationCountIdleState 58
scalar OsgEarthNet.uav[67] utilizationFail 0
scalar OsgEarthNet.uav[67] simulationTime 259200
scalar OsgEarthNet.uav[68] utilizationSecMission 33360.25905078
scalar OsgEarthNet.uav[68] utilizationSecMaintenance 14116.05096338
scalar OsgEarthNet.uav[68] utilizationSecCharge 172881.68898584
scalar OsgEarthNet.uav[68] utilizationSecIdle 38842
scalar OsgEarthNet.uav[68] utilizationEnergyMission 163624.04798508
scalar OsgEarthNet.uav[68] utilizationEnergyMaintenance 64060.945446014
scalar OsgEarthNet.uav[68] utilizationEnergyCharge 225455.95263672
scalar OsgEarthNet.uav[68] utilizationEnergyOverdrawMission 0
scalar OsgEarthNet.uav[68] utilizationEnergyOverdrawMaintenance 0
scalar OsgEarthNet.uav[68] utilizationCountMissions 49
scalar OsgEarthNet.uav[68] utilizationCountManeuversMission 1054
scalar OsgEarthNet.uav[68] utilizationCountManeuversMaintenance 98
scalar OsgEarthNet.uav[68] utilizationCountChargeState 49
scalar OsgEarthNet.uav[68] utilizationCountOverdrawnAfterMission 0
scalar OsgEarthNet.uav[68] utilizationCountIdleState 48
scalar OsgEarthNet.uav[68] utilizationFail 0
scalar OsgEarthNet.uav[68] simulationTime 259200
scalar OsgEarthNet.uav[69] utilizationSecMission 30468.940496076
scalar OsgEarthNet.uav[69] utilizationSecMaintenance 17579.047503924
scalar OsgEarthNet.uav[69] utilizationSecCharge 182100
scalar OsgEarthNet.uav[69] utilizationSecIdle 29052.011
scalar OsgEarthNet.uav[69] utilizationEnergyMission 146648.92324733
scalar OsgEarthNet.uav[69] utilizationEnergyMaintenance 83910.885223389
scalar OsgEarthNet.uav[69] utilizationEnergyCharge 227526.05981445
scalar OsgEarthNet.uav[69] utilizationEnergyOverdrawMission 0
scalar OsgEarthNet.uav[69] utilizationEnergyOverdrawMaintenance 0
scalar OsgEarthNet.uav[69] utilizationCountMissions 56
scalar OsgEarthNet.uav[69] utilizationCountManeuversMission 873
scalar OsgEarthNet.uav[69] utilizationCountManeuversMaintenance 113
scalar OsgEarthNet.uav[69] utilizationCountChargeState 56
scalar OsgEarthNet.uav[69] utilizationCountOverdrawnAfterMission 0
scalar OsgEarthNet.uav[69] utilizationCountIdleState 56
scalar OsgEarthNet.uav[69] utilizationFail 0
scalar OsgEarthNet.uav[69] simulationTime 259200
scalar OsgEarthNet.uav[70] utilizationSecMission 30591.555194812
scalar OsgEarthNet.uav[70] utilizationSecMaintenance 18515.34535723
scalar OsgEarthNet.uav[70] utilizationSecCharge 185151.09544796
scalar OsgEarthNet.uav[70] utilizationSecIdle 24942.003
scalar OsgEarthNet.uav[70] utilizationEnergyMission 147468.3908844
scalar OsgEarthNet.uav[70] utilizationEnergyMaintenance 87557.151123047
scalar OsgEarthNet.uav[70] utilizationEnergyCharge 234996.76416016
scalar OsgEarthNet.uav[70] utilizationEnergyOverdrawMission 0
scalar OsgEarthNet.uav[70] utilizationEnergyOverdrawMaintenance 0
scalar OsgEarthNet.uav[70] utilizationCountMissions 56
scalar OsgEarthNet.uav[70] utilizationCountManeuversMission 985
scalar OsgEarthNet.uav[70] utilizationCountManeuversMaintenance 112
scalar OsgEarthNet.uav[70] utilizationCountChargeState 56
scalar OsgEarthNet.uav[70] utilizationCountOverdrawnAfterMission 0
scalar OsgEarthNet.uav[70] utilizationCountIdleState 55
scalar OsgEarthNet.uav[70] utilizationFail 0
scalar OsgEarthNet.uav[70] simulationTime 259200
scalar OsgEarthNet.uav[71] utilizationSecMission 30385.900208838
scalar OsgEarthNet.uav[71] utilizationSecMaintenance 19002.306751003
scalar OsgEarthNet.uav[71] utilizationSecCharge 186858.12386217
scalar OsgEarthNet.uav[71] utilizationSecIdle 22953.668177988
scalar OsgEarthNet.uav[71] utilizationEnergyMission 148552.14418411
scalar OsgEarthNet.uav[71] utilizationEnergyMaintenance 90931.70117569
scalar OsgEarthNet.uav[71] utilizationEnergyCharge 237126.65356445
scalar OsgEarthNet.uav[71] utilizationEnergyOverdrawMission 0
scalar OsgEarthNet.uav[71] utilizationEnergyOverdrawMaintenance 0
scalar OsgEarthNet.uav[71] utilizationCountMissions 57
scalar OsgEarthNet.uav[71] utilizationCountManeuversMission 1010
scalar OsgEarthNet.uav[71] utilizationCountManeuversMaintenance 114
scalar OsgEarthNet.uav[71] utilizationCountChargeState 57
scalar OsgEarthNet.uav[71] utilizationCountOverdrawnAfterMission 0
scalar OsgEarthNet.uav[71] utilizationCountIdleState 54
scalar OsgEarthNet.uav[71] utilizationFail 0
scalar OsgEarthNet.uav[71] simulationTime 259200
scalar OsgEarthNet.uav[72] utilizationSecMission 31538.621230954
scalar OsgEarthNet.uav[72] utilizationSecMaintenance 15082.56717222
scalar OsgEarthNet.uav[72] utilizationSecCharge 169866.80759683
scalar OsgEarthNet.uav[72] utilizationSecIdle 42712.003
scalar OsgEarthNet.uav[72] utilizationEnergyMission 156974.44371414
scalar OsgEarthNet.uav[72] utilizationEnergyMaintenance 68712.4181633
scalar OsgEarthNet.uav[72] utilizationEnergyCharge 219755.88452148
scalar OsgEarthNet.uav[72] utilizationEnergyOverdrawMission 0
scalar OsgEarthNet.uav[72] utilizationEnergyOverdrawMaintenance 0
scalar OsgEarthNet.uav[72] utilizationCountMissions 49
scalar OsgEarthNet.uav[72] utilizationCountManeuversMission 1175
scalar OsgEarthNet.uav[72] utilizationCountManeuversMaintenance 98
scalar OsgEarthNet.uav[72] utilizationCountChargeState 49
scalar OsgEarthNet.uav[72] utilizationCountOverdrawnAfterMission 0
scalar OsgEarthNet.uav[72] utilizationCountIdleState 48
scalar OsgEarthNet.uav[72] utilizationFail 0
scalar OsgEarthNet.uav[72] simulationTime 259200
scalar OsgEarthNet.uav[73] utilizationSecMission 28538.94214898
scalar OsgEarthNet.uav[73] utilizationSecMaintenance 20319.04485102
scalar OsgEarthNet.uav[73] utilizationSecCharge 180730
scalar OsgEarthNet.uav[73] utilizationSecIdle 29612.012
scalar OsgEarthNet.uav[73] utilizationEnergyMission 138958.5886347
scalar OsgEarthNet.uav[73] utilizationEnergyMaintenance 96734.592037201
scalar OsgEarthNet.uav[73] utilizationEnergyCharge 232811.30664062
scalar OsgEarthNet.uav[73] utilizationEnergyOverdrawMission 0
scalar OsgEarthNet.uav[73] utilizationEnergyOverdrawMaintenance 0
scalar OsgEarthNet.uav[73] utilizationCountMissions 52
scalar OsgEarthNet.uav[73] utilizationCountManeuversMission 1063
scalar OsgEarthNet.uav[73] utilizationCountManeuversMaintenance 105
scalar OsgEarthNet.uav[73] utilizationCountChargeState 52
scalar OsgEarthNet.uav[73] utilizationCountOverdrawnAfterMission 0
scalar OsgEarthNet.uav[73] utilizationCountIdleState 50
scalar OsgEarthNet.uav[73] utilizationFail 0
scalar OsgEarthNet.uav[73] simulationTime 259200
scalar OsgEarthNet.uav[74] utilizationSecMission 32144.883402597
scalar OsgEarthNet.uav[74] utilizationSecMaintenance 16887.799515573
scalar OsgEarthNet.uav[74] utilizationSecCharge 184600
scalar OsgEarthNet.uav[74] utilizationSecIdle 25567.316081831
scalar OsgEarthNet.uav[74] utilizationEnergyMission 151238.51945073
scalar OsgEarthNet.uav[74] utilizationEnergyMaintenance 80579.675193787
scalar OsgEarthNet.uav[74] utilizationEnergyCharge 232829.99121094
scalar OsgEarthNet.uav[74] utilizationEnergyOverdrawMission 0
scalar OsgEarthNet.uav[74] utilizationEnergyOverdrawMaintenance 0
scalar OsgEarthNet.uav[74] utilizationCountMissions 56
scalar OsgEarthNet.uav[74] utilizationCountManeuversMission 863
scalar OsgEarthNet.uav[74] utilizationCountManeuversMaintenance 113
scalar OsgEarthNet.uav[74] utilizationCountChargeState 56
scalar OsgEarthNet.uav[74] utilizationCountOverdrawnAfterMission 0
scalar OsgEarthNet.uav[74] utilizationCountIdleState 53
scalar OsgEarthNet.uav[74] utilizationFail 0
scalar OsgEarthNet.uav[74] simulationTime 259200
scalar OsgEarthNet.cs[0] usedPower 4011179.9865708
scalar OsgEarthNet.cs[0] chargedPower 4011179.9865708
scalar OsgEarthNet.cs[0] chargedMobileNodes 777
scalar OsgEarthNet.cs[0] reservations 890
scalar OsgEarthNet.cs[1] usedPower 5714749.1360325
scalar OsgEarthNet.cs[1] chargedPower 5714749.1360325
scalar OsgEarthNet.cs[1] chargedMobileNodes 1354
scalar OsgEarthNet.cs[1] reservations 1413
scalar OsgEarthNet.cs[2] usedPower 6972920.8720965
scalar OsgEarthNet.cs[2] chargedPower 6972920.8720965
scalar OsgEarthNet.cs[2] chargedMobileNodes 1482
scalar OsgEarthNet.cs[2] reservations 1522

