version 2
run Szenario_Hotel_Gabelbach-167-20180712-03:55:39-18004
attr configname Szenario_Hotel_Gabelbach
attr datetime 20180712-03:55:39
attr experiment Szenario_Hotel_Gabelbach
attr inifile omnetpp.ini
attr iterationvars "$replM=2, $biWeight=0.35, $replSearchM=1, $numUAVs=75"
attr iterationvarsf replM=2,biWeight=0.35,replSearchM=1,numUAVs=75-
attr measurement "$replM=2, $biWeight=0.35, $replSearchM=1, $numUAVs=75"
attr network OsgEarthNet
attr processid 18004
attr repetition 11
attr replication #11
attr resultdir results
attr runnumber 167
attr seedset 167
itervar biWeight 0.35
itervar numUAVs 75
itervar replM 2
itervar replSearchM 1
param *.osgEarthScene.scene "\"Szenario_Hotel_Gabelbach.earth\""
param *.playgroundLatitude 50.6830269
param *.playgroundLongitude 10.8538055
param *.playgroundWidth 3500m
param *.playgroundHeight 3500m
param *.cs[0].posX 3537m
param *.cs[0].posY 965m
param *.cs[0].posZ 538m
param *.cs[1].posX 312m
param *.cs[1].posY 1262m
param *.cs[1].posZ 539m
param *.cs[2].posX 2185m
param *.cs[2].posY 3026m
param *.cs[2].posZ 777m
param *.cs[3].posX 10m
param *.cs[3].posY 2200m
param *.cs[3].posZ 560m
param *.cs[4].posX 750m
param *.cs[4].posY 200m
param *.cs[4].posZ 540m
param *.cs[5].posX 2450m
param *.cs[5].posY 180m
param *.cs[5].posZ 524m
param *.cs[6].posX 3140m
param *.cs[6].posY 1790m
param *.cs[6].posZ 606m
param *.numCSs 3
param *.uav[*].replacementMethod 2
param *.uav[*].weightedSumWeight 0.35
param *.missionControl.replacementSearchMethod 1
param *.numUAVs 75
param *.numCSs 3
param *.numUAVs 100
param *.*.timeStep 10s
param *.uav[*].commandPreviewCommandCount 20
param *.missionControl.missionFiles "\"missions\\\\Szenario_WB_Hotel_Gabelbach_Mission_Hotel.waypoints,missions\\\\Szenario_WB_Hotel_Gabelbach_Mission_Kickelhahn.waypoints,missions\\\\Szenario_WB_Hotel_Gabelbach_Mission_Ilmenau_Sportplatz.waypoints,missions\\\\Szenario_WB_Hotel_Gabelbach_Mission_Manebach_Mitte.waypoints,missions\\\\Szenario_WB_Hotel_Gabelbach_Mission_Manebach_Sued.waypoints,missions\\\\Szenario_WB_Hotel_Gabelbach_Hover_HoheSchlaufe.waypoints,missions\\\\Szenario_WB_Hotel_Gabelbach_Hover_Kickelhahn.waypoints,missions\\\\Szenario_WB_Hotel_Gabelbach_Hover_Gabelbachskopf.waypoints,missions\\\\Szenario_WB_Hotel_Gabelbach_Hover_Dachskopf.waypoints\""
param *.uav[0].startX 3537m
param *.uav[0].startY 965m
param *.uav[0].startZ 539m
param *.uav[1].startX 312m
param *.uav[1].startY 1262m
param *.uav[1].startZ 540m
param *.uav[2].startX 2185m
param *.uav[2].startY 3026m
param *.uav[2].startZ 778m
param *.uav[3].startX 3537m
param *.uav[3].startY 965m
param *.uav[3].startZ 539m
param *.uav[4].startX 312m
param *.uav[4].startY 1262m
param *.uav[4].startZ 540m
param *.uav[5].startX 2185m
param *.uav[5].startY 3026m
param *.uav[5].startZ 778m
param *.uav[6].startX 3537m
param *.uav[6].startY 965m
param *.uav[6].startZ 539m
param *.uav[7].startX 312m
param *.uav[7].startY 1262m
param *.uav[7].startZ 540m
param *.uav[8].startX 2185m
param *.uav[8].startY 3026m
param *.uav[8].startZ 778m
param *.uav[9].startX 3537m
param *.uav[9].startY 965m
param *.uav[9].startZ 539m
param *.uav[10].startX 3537m
param *.uav[10].startY 965m
param *.uav[10].startZ 539m
param *.uav[11].startX 312m
param *.uav[11].startY 1262m
param *.uav[11].startZ 540m
param *.uav[12].startX 2185m
param *.uav[12].startY 3026m
param *.uav[12].startZ 778m
param *.uav[13].startX 3537m
param *.uav[13].startY 965m
param *.uav[13].startZ 539m
param *.uav[14].startX 312m
param *.uav[14].startY 1262m
param *.uav[14].startZ 540m
param *.uav[15].startX 2185m
param *.uav[15].startY 3026m
param *.uav[15].startZ 778m
param *.uav[16].startX 3537m
param *.uav[16].startY 965m
param *.uav[16].startZ 539m
param *.uav[17].startX 312m
param *.uav[17].startY 1262m
param *.uav[17].startZ 540m
param *.uav[18].startX 2185m
param *.uav[18].startY 3026m
param *.uav[18].startZ 778m
param *.uav[19].startX 3537m
param *.uav[19].startY 965m
param *.uav[19].startZ 539m
param *.uav[20].startX 3537m
param *.uav[20].startY 965m
param *.uav[20].startZ 539m
param *.uav[21].startX 312m
param *.uav[21].startY 1262m
param *.uav[21].startZ 540m
param *.uav[22].startX 2185m
param *.uav[22].startY 3026m
param *.uav[22].startZ 778m
param *.uav[23].startX 3537m
param *.uav[23].startY 965m
param *.uav[23].startZ 539m
param *.uav[24].startX 312m
param *.uav[24].startY 1262m
param *.uav[24].startZ 540m
param *.uav[25].startX 2185m
param *.uav[25].startY 3026m
param *.uav[25].startZ 778m
param *.uav[26].startX 3537m
param *.uav[26].startY 965m
param *.uav[26].startZ 539m
param *.uav[27].startX 312m
param *.uav[27].startY 1262m
param *.uav[27].startZ 540m
param *.uav[28].startX 2185m
param *.uav[28].startY 3026m
param *.uav[28].startZ 778m
param *.uav[29].startX 3537m
param *.uav[29].startY 965m
param *.uav[29].startZ 539m
param *.uav[30].startX 3537m
param *.uav[30].startY 965m
param *.uav[30].startZ 539m
param *.uav[31].startX 312m
param *.uav[31].startY 1262m
param *.uav[31].startZ 540m
param *.uav[32].startX 2185m
param *.uav[32].startY 3026m
param *.uav[32].startZ 778m
param *.uav[33].startX 3537m
param *.uav[33].startY 965m
param *.uav[33].startZ 539m
param *.uav[34].startX 312m
param *.uav[34].startY 1262m
param *.uav[34].startZ 540m
param *.uav[35].startX 2185m
param *.uav[35].startY 3026m
param *.uav[35].startZ 778m
param *.uav[36].startX 3537m
param *.uav[36].startY 965m
param *.uav[36].startZ 539m
param *.uav[37].startX 312m
param *.uav[37].startY 1262m
param *.uav[37].startZ 540m
param *.uav[38].startX 2185m
param *.uav[38].startY 3026m
param *.uav[38].startZ 778m
param *.uav[39].startX 3537m
param *.uav[39].startY 965m
param *.uav[39].startZ 539m
param *.uav[40].startX 3537m
param *.uav[40].startY 965m
param *.uav[40].startZ 539m
param *.uav[41].startX 312m
param *.uav[41].startY 1262m
param *.uav[41].startZ 540m
param *.uav[42].startX 2185m
param *.uav[42].startY 3026m
param *.uav[42].startZ 778m
param *.uav[43].startX 3537m
param *.uav[43].startY 965m
param *.uav[43].startZ 539m
param *.uav[44].startX 312m
param *.uav[44].startY 1262m
param *.uav[44].startZ 540m
param *.uav[45].startX 2185m
param *.uav[45].startY 3026m
param *.uav[45].startZ 778m
param *.uav[46].startX 3537m
param *.uav[46].startY 965m
param *.uav[46].startZ 539m
param *.uav[47].startX 312m
param *.uav[47].startY 1262m
param *.uav[47].startZ 540m
param *.uav[48].startX 2185m
param *.uav[48].startY 3026m
param *.uav[48].startZ 778m
param *.uav[49].startX 3537m
param *.uav[49].startY 965m
param *.uav[49].startZ 539m
param *.uav[50].startX 3537m
param *.uav[50].startY 965m
param *.uav[50].startZ 539m
param *.uav[51].startX 312m
param *.uav[51].startY 1262m
param *.uav[51].startZ 540m
param *.uav[52].startX 2185m
param *.uav[52].startY 3026m
param *.uav[52].startZ 778m
param *.uav[53].startX 3537m
param *.uav[53].startY 965m
param *.uav[53].startZ 539m
param *.uav[54].startX 312m
param *.uav[54].startY 1262m
param *.uav[54].startZ 540m
param *.uav[55].startX 2185m
param *.uav[55].startY 3026m
param *.uav[55].startZ 778m
param *.uav[56].startX 3537m
param *.uav[56].startY 965m
param *.uav[56].startZ 539m
param *.uav[57].startX 312m
param *.uav[57].startY 1262m
param *.uav[57].startZ 540m
param *.uav[58].startX 2185m
param *.uav[58].startY 3026m
param *.uav[58].startZ 778m
param *.uav[59].startX 3537m
param *.uav[59].startY 965m
param *.uav[59].startZ 539m
param *.uav[60].startX 3537m
param *.uav[60].startY 965m
param *.uav[60].startZ 539m
param *.uav[61].startX 312m
param *.uav[61].startY 1262m
param *.uav[61].startZ 540m
param *.uav[62].startX 2185m
param *.uav[62].startY 3026m
param *.uav[62].startZ 778m
param *.uav[63].startX 3537m
param *.uav[63].startY 965m
param *.uav[63].startZ 539m
param *.uav[64].startX 312m
param *.uav[64].startY 1262m
param *.uav[64].startZ 540m
param *.uav[65].startX 2185m
param *.uav[65].startY 3026m
param *.uav[65].startZ 778m
param *.uav[66].startX 3537m
param *.uav[66].startY 965m
param *.uav[66].startZ 539m
param *.uav[67].startX 312m
param *.uav[67].startY 1262m
param *.uav[67].startZ 540m
param *.uav[68].startX 2185m
param *.uav[68].startY 3026m
param *.uav[68].startZ 778m
param *.uav[69].startX 3537m
param *.uav[69].startY 965m
param *.uav[69].startZ 539m
param *.uav[70].startX 3537m
param *.uav[70].startY 965m
param *.uav[70].startZ 539m
param *.uav[71].startX 312m
param *.uav[71].startY 1262m
param *.uav[71].startZ 540m
param *.uav[72].startX 2185m
param *.uav[72].startY 3026m
param *.uav[72].startZ 778m
param *.uav[73].startX 3537m
param *.uav[73].startY 965m
param *.uav[73].startZ 539m
param *.uav[74].startX 312m
param *.uav[74].startY 1262m
param *.uav[74].startZ 540m
param *.uav[75].startX 2185m
param *.uav[75].startY 3026m
param *.uav[75].startZ 778m
param *.uav[76].startX 3537m
param *.uav[76].startY 965m
param *.uav[76].startZ 539m
param *.uav[77].startX 312m
param *.uav[77].startY 1262m
param *.uav[77].startZ 540m
param *.uav[78].startX 2185m
param *.uav[78].startY 3026m
param *.uav[78].startZ 778m
param *.uav[79].startX 3537m
param *.uav[79].startY 965m
param *.uav[79].startZ 539m
param *.uav[80].startX 3537m
param *.uav[80].startY 965m
param *.uav[80].startZ 539m
param *.uav[81].startX 312m
param *.uav[81].startY 1262m
param *.uav[81].startZ 540m
param *.uav[82].startX 2185m
param *.uav[82].startY 3026m
param *.uav[82].startZ 778m
param *.uav[83].startX 3537m
param *.uav[83].startY 965m
param *.uav[83].startZ 539m
param *.uav[84].startX 312m
param *.uav[84].startY 1262m
param *.uav[84].startZ 540m
param *.uav[85].startX 2185m
param *.uav[85].startY 3026m
param *.uav[85].startZ 778m
param *.uav[86].startX 3537m
param *.uav[86].startY 965m
param *.uav[86].startZ 539m
param *.uav[87].startX 312m
param *.uav[87].startY 1262m
param *.uav[87].startZ 540m
param *.uav[88].startX 2185m
param *.uav[88].startY 3026m
param *.uav[88].startZ 778m
param *.uav[89].startX 3537m
param *.uav[89].startY 965m
param *.uav[89].startZ 539m
param *.uav[90].startX 3537m
param *.uav[90].startY 965m
param *.uav[90].startZ 539m
param *.uav[91].startX 312m
param *.uav[91].startY 1262m
param *.uav[91].startZ 540m
param *.uav[92].startX 2185m
param *.uav[92].startY 3026m
param *.uav[92].startZ 778m
param *.uav[93].startX 3537m
param *.uav[93].startY 965m
param *.uav[93].startZ 539m
param *.uav[94].startX 312m
param *.uav[94].startY 1262m
param *.uav[94].startZ 540m
param *.uav[95].startX 2185m
param *.uav[95].startY 3026m
param *.uav[95].startZ 778m
param *.uav[96].startX 3537m
param *.uav[96].startY 965m
param *.uav[96].startZ 539m
param *.uav[97].startX 312m
param *.uav[97].startY 1262m
param *.uav[97].startZ 540m
param *.uav[98].startX 2185m
param *.uav[98].startY 3026m
param *.uav[98].startZ 778m
param *.uav[99].startX 3537m
param *.uav[99].startY 965m
param *.uav[99].startZ 539m
param *.osgEarthScene.scene "\"boston.earth\""
param *.playgroundLatitude 42.3558
param *.playgroundLongitude -71.0677
param *.playgroundWidth 400m
param *.playgroundHeight 200m
param *.channelController.connectionColor "\"#0000FF40\""
param *.channelController.showConnections false
param *.uav[*].modelURL "\"quadrocopter.small.obj.15.scale.0,0,90.rot\""
param *.uav[*].labelColor "\"#FF7C00CC\""
param *.uav[*].label2Color "\"#FF7C00EE\""
param *.uav[*].batteryCapacity 5200mAh
param *.uav[*].batteryRemaining uav[index].batteryCapacity
param *.uav[*].predictionQuantile 0.95
param *.uav[*].replacementMethod 2
param *.uav[*].weightedSumWeight 0.5
param *.cs[*].modelURL "\"chargingstation_v1.osgt.2.scale.0,0,0.rot.0,0,-15e-1.trans\""
param *.cs[*].spotsWaiting 999
param *.cs[*].spotsCharging 999
param *.cs[*].chargeEffectivenessPercentage 100
param *.cs[*].nonLinearPhaseStartPercentage 85
param *.cs[*].chargeCurrent 6.0A
param *.cs[*].prioritizeFastCharge true
param *.missionControl.replacementSearchMethod 0
param *.*.timeStep 9s

scalar OsgEarthNet.uav[0] utilizationSecMission 22030.002441285
scalar OsgEarthNet.uav[0] utilizationSecMaintenance 13010.948131257
scalar OsgEarthNet.uav[0] utilizationSecCharge 129710
scalar OsgEarthNet.uav[0] utilizationSecIdle 94449.048427458
scalar OsgEarthNet.uav[0] utilizationEnergyMission 105362.81801987
scalar OsgEarthNet.uav[0] utilizationEnergyMaintenance 61877.096736908
scalar OsgEarthNet.uav[0] utilizationEnergyCharge 166955.21826172
scalar OsgEarthNet.uav[0] utilizationEnergyOverdrawMission 0
scalar OsgEarthNet.uav[0] utilizationEnergyOverdrawMaintenance 0
scalar OsgEarthNet.uav[0] utilizationCountMissions 37
scalar OsgEarthNet.uav[0] utilizationCountManeuversMission 685
scalar OsgEarthNet.uav[0] utilizationCountManeuversMaintenance 74
scalar OsgEarthNet.uav[0] utilizationCountChargeState 37
scalar OsgEarthNet.uav[0] utilizationCountOverdrawnAfterMission 0
scalar OsgEarthNet.uav[0] utilizationCountIdleState 38
scalar OsgEarthNet.uav[0] utilizationFail 0
scalar OsgEarthNet.uav[0] simulationTime 259200
scalar OsgEarthNet.uav[1] utilizationSecMission 29444.46785683
scalar OsgEarthNet.uav[1] utilizationSecMaintenance 18581.862965183
scalar OsgEarthNet.uav[1] utilizationSecCharge 184570
scalar OsgEarthNet.uav[1] utilizationSecIdle 26603.668177988
scalar OsgEarthNet.uav[1] utilizationEnergyMission 143937.42032884
scalar OsgEarthNet.uav[1] utilizationEnergyMaintenance 88166.385612488
scalar OsgEarthNet.uav[1] utilizationEnergyCharge 230066.34130859
scalar OsgEarthNet.uav[1] utilizationEnergyOverdrawMission 0
scalar OsgEarthNet.uav[1] utilizationEnergyOverdrawMaintenance 0
scalar OsgEarthNet.uav[1] utilizationCountMissions 57
scalar OsgEarthNet.uav[1] utilizationCountManeuversMission 903
scalar OsgEarthNet.uav[1] utilizationCountManeuversMaintenance 115
scalar OsgEarthNet.uav[1] utilizationCountChargeState 57
scalar OsgEarthNet.uav[1] utilizationCountOverdrawnAfterMission 0
scalar OsgEarthNet.uav[1] utilizationCountIdleState 58
scalar OsgEarthNet.uav[1] utilizationFail 0
scalar OsgEarthNet.uav[1] simulationTime 259200
scalar OsgEarthNet.uav[2] utilizationSecMission 34769.495378901
scalar OsgEarthNet.uav[2] utilizationSecMaintenance 14667.597393192
scalar OsgEarthNet.uav[2] utilizationSecCharge 181630.90222791
scalar OsgEarthNet.uav[2] utilizationSecIdle 28132.004
scalar OsgEarthNet.uav[2] utilizationEnergyMission 171029.36551285
scalar OsgEarthNet.uav[2] utilizationEnergyMaintenance 67241.809158325
scalar OsgEarthNet.uav[2] utilizationEnergyCharge 235724.0032959
scalar OsgEarthNet.uav[2] utilizationEnergyOverdrawMission 0
scalar OsgEarthNet.uav[2] utilizationEnergyOverdrawMaintenance 0
scalar OsgEarthNet.uav[2] utilizationCountMissions 52
scalar OsgEarthNet.uav[2] utilizationCountManeuversMission 1242
scalar OsgEarthNet.uav[2] utilizationCountManeuversMaintenance 104
scalar OsgEarthNet.uav[2] utilizationCountChargeState 52
scalar OsgEarthNet.uav[2] utilizationCountOverdrawnAfterMission 0
scalar OsgEarthNet.uav[2] utilizationCountIdleState 51
scalar OsgEarthNet.uav[2] utilizationFail 0
scalar OsgEarthNet.uav[2] simulationTime 259200
scalar OsgEarthNet.uav[3] utilizationSecMission 25469.377288704
scalar OsgEarthNet.uav[3] utilizationSecMaintenance 16757.280140799
scalar OsgEarthNet.uav[3] utilizationSecCharge 154721.3405705
scalar OsgEarthNet.uav[3] utilizationSecIdle 62252.001
scalar OsgEarthNet.uav[3] utilizationEnergyMission 124887.71953583
scalar OsgEarthNet.uav[3] utilizationEnergyMaintenance 79671.084590912
scalar OsgEarthNet.uav[3] utilizationEnergyCharge 199285.23388672
scalar OsgEarthNet.uav[3] utilizationEnergyOverdrawMission 0
scalar OsgEarthNet.uav[3] utilizationEnergyOverdrawMaintenance 0
scalar OsgEarthNet.uav[3] utilizationCountMissions 45
scalar OsgEarthNet.uav[3] utilizationCountManeuversMission 883
scalar OsgEarthNet.uav[3] utilizationCountManeuversMaintenance 90
scalar OsgEarthNet.uav[3] utilizationCountChargeState 45
scalar OsgEarthNet.uav[3] utilizationCountOverdrawnAfterMission 0
scalar OsgEarthNet.uav[3] utilizationCountIdleState 45
scalar OsgEarthNet.uav[3] utilizationFail 0
scalar OsgEarthNet.uav[3] simulationTime 259200
scalar OsgEarthNet.uav[4] utilizationSecMission 31239.884973365
scalar OsgEarthNet.uav[4] utilizationSecMaintenance 16249.056231441
scalar OsgEarthNet.uav[4] utilizationSecCharge 181510
scalar OsgEarthNet.uav[4] utilizationSecIdle 30201.057795193
scalar OsgEarthNet.uav[4] utilizationEnergyMission 148635.5127449
scalar OsgEarthNet.uav[4] utilizationEnergyMaintenance 77428.676751844
scalar OsgEarthNet.uav[4] utilizationEnergyCharge 226694.55541992
scalar OsgEarthNet.uav[4] utilizationEnergyOverdrawMission 0
scalar OsgEarthNet.uav[4] utilizationEnergyOverdrawMaintenance 0
scalar OsgEarthNet.uav[4] utilizationCountMissions 56
scalar OsgEarthNet.uav[4] utilizationCountManeuversMission 800
scalar OsgEarthNet.uav[4] utilizationCountManeuversMaintenance 113
scalar OsgEarthNet.uav[4] utilizationCountChargeState 56
scalar OsgEarthNet.uav[4] utilizationCountOverdrawnAfterMission 0
scalar OsgEarthNet.uav[4] utilizationCountIdleState 56
scalar OsgEarthNet.uav[4] utilizationFail 0
scalar OsgEarthNet.uav[4] simulationTime 259200
scalar OsgEarthNet.uav[5] utilizationSecMission 34395.838553595
scalar OsgEarthNet.uav[5] utilizationSecMaintenance 14562.157446405
scalar OsgEarthNet.uav[5] utilizationSecCharge 181760
scalar OsgEarthNet.uav[5] utilizationSecIdle 28482.003
scalar OsgEarthNet.uav[5] utilizationEnergyMission 167944.58695783
scalar OsgEarthNet.uav[5] utilizationEnergyMaintenance 66863.324253082
scalar OsgEarthNet.uav[5] utilizationEnergyCharge 236404.06005859
scalar OsgEarthNet.uav[5] utilizationEnergyOverdrawMission 0
scalar OsgEarthNet.uav[5] utilizationEnergyOverdrawMaintenance 0
scalar OsgEarthNet.uav[5] utilizationCountMissions 51
scalar OsgEarthNet.uav[5] utilizationCountManeuversMission 1178
scalar OsgEarthNet.uav[5] utilizationCountManeuversMaintenance 103
scalar OsgEarthNet.uav[5] utilizationCountChargeState 51
scalar OsgEarthNet.uav[5] utilizationCountOverdrawnAfterMission 0
scalar OsgEarthNet.uav[5] utilizationCountIdleState 50
scalar OsgEarthNet.uav[5] utilizationFail 0
scalar OsgEarthNet.uav[5] simulationTime 259200
scalar OsgEarthNet.uav[6] utilizationSecMission 20486.876678383
scalar OsgEarthNet.uav[6] utilizationSecMaintenance 14204.808392854
scalar OsgEarthNet.uav[6] utilizationSecCharge 131260
scalar OsgEarthNet.uav[6] utilizationSecIdle 93248.313928762
scalar OsgEarthNet.uav[6] utilizationEnergyMission 101707.36790848
scalar OsgEarthNet.uav[6] utilizationEnergyMaintenance 68221.014320373
scalar OsgEarthNet.uav[6] utilizationEnergyCharge 169693.13867188
scalar OsgEarthNet.uav[6] utilizationEnergyOverdrawMission 0
scalar OsgEarthNet.uav[6] utilizationEnergyOverdrawMaintenance 0
scalar OsgEarthNet.uav[6] utilizationCountMissions 37
scalar OsgEarthNet.uav[6] utilizationCountManeuversMission 738
scalar OsgEarthNet.uav[6] utilizationCountManeuversMaintenance 74
scalar OsgEarthNet.uav[6] utilizationCountChargeState 37
scalar OsgEarthNet.uav[6] utilizationCountOverdrawnAfterMission 0
scalar OsgEarthNet.uav[6] utilizationCountIdleState 38
scalar OsgEarthNet.uav[6] utilizationFail 0
scalar OsgEarthNet.uav[6] simulationTime 259200
scalar OsgEarthNet.uav[7] utilizationSecMission 33482.909315014
scalar OsgEarthNet.uav[7] utilizationSecMaintenance 15632.736324436
scalar OsgEarthNet.uav[7] utilizationSecCharge 181778.91027186
scalar OsgEarthNet.uav[7] utilizationSecIdle 28305.443088691
scalar OsgEarthNet.uav[7] utilizationEnergyMission 161561.28656387
scalar OsgEarthNet.uav[7] utilizationEnergyMaintenance 73125.418182373
scalar OsgEarthNet.uav[7] utilizationEnergyCharge 235349.79711914
scalar OsgEarthNet.uav[7] utilizationEnergyOverdrawMission 0
scalar OsgEarthNet.uav[7] utilizationEnergyOverdrawMaintenance 0
scalar OsgEarthNet.uav[7] utilizationCountMissions 52
scalar OsgEarthNet.uav[7] utilizationCountManeuversMission 1125
scalar OsgEarthNet.uav[7] utilizationCountManeuversMaintenance 104
scalar OsgEarthNet.uav[7] utilizationCountChargeState 52
scalar OsgEarthNet.uav[7] utilizationCountOverdrawnAfterMission 0
scalar OsgEarthNet.uav[7] utilizationCountIdleState 52
scalar OsgEarthNet.uav[7] utilizationFail 0
scalar OsgEarthNet.uav[7] simulationTime 259200
scalar OsgEarthNet.uav[8] utilizationSecMission 36157.753035843
scalar OsgEarthNet.uav[8] utilizationSecMaintenance 13385.258922893
scalar OsgEarthNet.uav[8] utilizationSecCharge 181809.53677723
scalar OsgEarthNet.uav[8] utilizationSecIdle 27847.450264031
scalar OsgEarthNet.uav[8] utilizationEnergyMission 172784.96282959
scalar OsgEarthNet.uav[8] utilizationEnergyMaintenance 61061.347366333
scalar OsgEarthNet.uav[8] utilizationEnergyCharge 236819.90576172
scalar OsgEarthNet.uav[8] utilizationEnergyOverdrawMission 0
scalar OsgEarthNet.uav[8] utilizationEnergyOverdrawMaintenance 0
scalar OsgEarthNet.uav[8] utilizationCountMissions 51
scalar OsgEarthNet.uav[8] utilizationCountManeuversMission 1049
scalar OsgEarthNet.uav[8] utilizationCountManeuversMaintenance 102
scalar OsgEarthNet.uav[8] utilizationCountChargeState 51
scalar OsgEarthNet.uav[8] utilizationCountOverdrawnAfterMission 0
scalar OsgEarthNet.uav[8] utilizationCountIdleState 50
scalar OsgEarthNet.uav[8] utilizationFail 0
scalar OsgEarthNet.uav[8] simulationTime 259200
scalar OsgEarthNet.uav[9] utilizationSecMission 29861.719380434
scalar OsgEarthNet.uav[9] utilizationSecMaintenance 18374.70335926
scalar OsgEarthNet.uav[9] utilizationSecCharge 183022.82485133
scalar OsgEarthNet.uav[9] utilizationSecIdle 27940.751408972
scalar OsgEarthNet.uav[9] utilizationEnergyMission 143637.22388077
scalar OsgEarthNet.uav[9] utilizationEnergyMaintenance 86792.39963913
scalar OsgEarthNet.uav[9] utilizationEnergyCharge 230291.72998047
scalar OsgEarthNet.uav[9] utilizationEnergyOverdrawMission 0
scalar OsgEarthNet.uav[9] utilizationEnergyOverdrawMaintenance 0
scalar OsgEarthNet.uav[9] utilizationCountMissions 56
scalar OsgEarthNet.uav[9] utilizationCountManeuversMission 905
scalar OsgEarthNet.uav[9] utilizationCountManeuversMaintenance 112
scalar OsgEarthNet.uav[9] utilizationCountChargeState 56
scalar OsgEarthNet.uav[9] utilizationCountOverdrawnAfterMission 0
scalar OsgEarthNet.uav[9] utilizationCountIdleState 54
scalar OsgEarthNet.uav[9] utilizationFail 0
scalar OsgEarthNet.uav[9] simulationTime 259200
scalar OsgEarthNet.uav[10] utilizationSecMission 24413.019129107
scalar OsgEarthNet.uav[10] utilizationSecMaintenance 13542.210531887
scalar OsgEarthNet.uav[10] utilizationSecCharge 140022.00337367
scalar OsgEarthNet.uav[10] utilizationSecIdle 81222.765965339
scalar OsgEarthNet.uav[10] utilizationEnergyMission 115749.36016464
scalar OsgEarthNet.uav[10] utilizationEnergyMaintenance 64250.66462326
scalar OsgEarthNet.uav[10] utilizationEnergyCharge 181775.96166992
scalar OsgEarthNet.uav[10] utilizationEnergyOverdrawMission 0
scalar OsgEarthNet.uav[10] utilizationEnergyOverdrawMaintenance 0
scalar OsgEarthNet.uav[10] utilizationCountMissions 40
scalar OsgEarthNet.uav[10] utilizationCountManeuversMission 691
scalar OsgEarthNet.uav[10] utilizationCountManeuversMaintenance 80
scalar OsgEarthNet.uav[10] utilizationCountChargeState 40
scalar OsgEarthNet.uav[10] utilizationCountOverdrawnAfterMission 0
scalar OsgEarthNet.uav[10] utilizationCountIdleState 40
scalar OsgEarthNet.uav[10] utilizationFail 0
scalar OsgEarthNet.uav[10] simulationTime 259200
scalar OsgEarthNet.uav[11] utilizationSecMission 29711.337004566
scalar OsgEarthNet.uav[11] utilizationSecMaintenance 17702.365649355
scalar OsgEarthNet.uav[11] utilizationSecCharge 185604.29534608
scalar OsgEarthNet.uav[11] utilizationSecIdle 26182.001
scalar OsgEarthNet.uav[11] utilizationEnergyMission 141921.06611252
scalar OsgEarthNet.uav[11] utilizationEnergyMaintenance 84310.188674927
scalar OsgEarthNet.uav[11] utilizationEnergyCharge 226676.77807617
scalar OsgEarthNet.uav[11] utilizationEnergyOverdrawMission 0
scalar OsgEarthNet.uav[11] utilizationEnergyOverdrawMaintenance 0
scalar OsgEarthNet.uav[11] utilizationCountMissions 60
scalar OsgEarthNet.uav[11] utilizationCountManeuversMission 740
scalar OsgEarthNet.uav[11] utilizationCountManeuversMaintenance 120
scalar OsgEarthNet.uav[11] utilizationCountChargeState 60
scalar OsgEarthNet.uav[11] utilizationCountOverdrawnAfterMission 0
scalar OsgEarthNet.uav[11] utilizationCountIdleState 60
scalar OsgEarthNet.uav[11] utilizationFail 0
scalar OsgEarthNet.uav[11] simulationTime 259200
scalar OsgEarthNet.uav[12] utilizationSecMission 35470.003161752
scalar OsgEarthNet.uav[12] utilizationSecMaintenance 13407.990838248
scalar OsgEarthNet.uav[12] utilizationSecCharge 178710
scalar OsgEarthNet.uav[12] utilizationSecIdle 31612.005
scalar OsgEarthNet.uav[12] utilizationEnergyMission 170662.52584457
scalar OsgEarthNet.uav[12] utilizationEnergyMaintenance 61591.00571918
scalar OsgEarthNet.uav[12] utilizationEnergyCharge 231899.61230469
scalar OsgEarthNet.uav[12] utilizationEnergyOverdrawMission 0
scalar OsgEarthNet.uav[12] utilizationEnergyOverdrawMaintenance 0
scalar OsgEarthNet.uav[12] utilizationCountMissions 50
scalar OsgEarthNet.uav[12] utilizationCountManeuversMission 1040
scalar OsgEarthNet.uav[12] utilizationCountManeuversMaintenance 101
scalar OsgEarthNet.uav[12] utilizationCountChargeState 50
scalar OsgEarthNet.uav[12] utilizationCountOverdrawnAfterMission 0
scalar OsgEarthNet.uav[12] utilizationCountIdleState 50
scalar OsgEarthNet.uav[12] utilizationFail 0
scalar OsgEarthNet.uav[12] simulationTime 259200
scalar OsgEarthNet.uav[13] utilizationSecMission 35540.97150436
scalar OsgEarthNet.uav[13] utilizationSecMaintenance 13770.845380104
scalar OsgEarthNet.uav[13] utilizationSecCharge 177960
scalar OsgEarthNet.uav[13] utilizationSecIdle 31928.182115535
scalar OsgEarthNet.uav[13] utilizationEnergyMission 170587.35500336
scalar OsgEarthNet.uav[13] utilizationEnergyMaintenance 63308.912591967
scalar OsgEarthNet.uav[13] utilizationEnergyCharge 230562.67480469
scalar OsgEarthNet.uav[13] utilizationEnergyOverdrawMission 0
scalar OsgEarthNet.uav[13] utilizationEnergyOverdrawMaintenance 0
scalar OsgEarthNet.uav[13] utilizationCountMissions 51
scalar OsgEarthNet.uav[13] utilizationCountManeuversMission 1110
scalar OsgEarthNet.uav[13] utilizationCountManeuversMaintenance 102
scalar OsgEarthNet.uav[13] utilizationCountChargeState 50
scalar OsgEarthNet.uav[13] utilizationCountOverdrawnAfterMission 0
scalar OsgEarthNet.uav[13] utilizationCountIdleState 51
scalar OsgEarthNet.uav[13] utilizationFail 0
scalar OsgEarthNet.uav[13] simulationTime 259200
scalar OsgEarthNet.uav[14] utilizationSecMission 29681.857678746
scalar OsgEarthNet.uav[14] utilizationSecMaintenance 18881.412458166
scalar OsgEarthNet.uav[14] utilizationSecCharge 186454.72586309
scalar OsgEarthNet.uav[14] utilizationSecIdle 24182.003
scalar OsgEarthNet.uav[14] utilizationEnergyMission 143411.92719269
scalar OsgEarthNet.uav[14] utilizationEnergyMaintenance 89432.745506287
scalar OsgEarthNet.uav[14] utilizationEnergyCharge 233003.56494141
scalar OsgEarthNet.uav[14] utilizationEnergyOverdrawMission 0
scalar OsgEarthNet.uav[14] utilizationEnergyOverdrawMaintenance 0
scalar OsgEarthNet.uav[14] utilizationCountMissions 58
scalar OsgEarthNet.uav[14] utilizationCountManeuversMission 936
scalar OsgEarthNet.uav[14] utilizationCountManeuversMaintenance 116
scalar OsgEarthNet.uav[14] utilizationCountChargeState 58
scalar OsgEarthNet.uav[14] utilizationCountOverdrawnAfterMission 0
scalar OsgEarthNet.uav[14] utilizationCountIdleState 56
scalar OsgEarthNet.uav[14] utilizationFail 0
scalar OsgEarthNet.uav[14] simulationTime 259200
scalar OsgEarthNet.uav[15] utilizationSecMission 34561.5008546
scalar OsgEarthNet.uav[15] utilizationSecMaintenance 15329.239344798
scalar OsgEarthNet.uav[15] utilizationSecCharge 183259.83345331
scalar OsgEarthNet.uav[15] utilizationSecIdle 26049.42534729
scalar OsgEarthNet.uav[15] utilizationEnergyMission 168601.47390366
scalar OsgEarthNet.uav[15] utilizationEnergyMaintenance 70763.292419434
scalar OsgEarthNet.uav[15] utilizationEnergyCharge 238353.79541016
scalar OsgEarthNet.uav[15] utilizationEnergyOverdrawMission 0
scalar OsgEarthNet.uav[15] utilizationEnergyOverdrawMaintenance 0
scalar OsgEarthNet.uav[15] utilizationCountMissions 52
scalar OsgEarthNet.uav[15] utilizationCountManeuversMission 1134
scalar OsgEarthNet.uav[15] utilizationCountManeuversMaintenance 104
scalar OsgEarthNet.uav[15] utilizationCountChargeState 52
scalar OsgEarthNet.uav[15] utilizationCountOverdrawnAfterMission 0
scalar OsgEarthNet.uav[15] utilizationCountIdleState 50
scalar OsgEarthNet.uav[15] utilizationFail 0
scalar OsgEarthNet.uav[15] simulationTime 259200
scalar OsgEarthNet.uav[16] utilizationSecMission 31284.72557873
scalar OsgEarthNet.uav[16] utilizationSecMaintenance 15991.002858446
scalar OsgEarthNet.uav[16] utilizationSecCharge 180202.26856282
scalar OsgEarthNet.uav[16] utilizationSecIdle 31722.002
scalar OsgEarthNet.uav[16] utilizationEnergyMission 149554.1840477
scalar OsgEarthNet.uav[16] utilizationEnergyMaintenance 75704.797454834
scalar OsgEarthNet.uav[16] utilizationEnergyCharge 224902.18676758
scalar OsgEarthNet.uav[16] utilizationEnergyOverdrawMission 0
scalar OsgEarthNet.uav[16] utilizationEnergyOverdrawMaintenance 0
scalar OsgEarthNet.uav[16] utilizationCountMissions 56
scalar OsgEarthNet.uav[16] utilizationCountManeuversMission 778
scalar OsgEarthNet.uav[16] utilizationCountManeuversMaintenance 112
scalar OsgEarthNet.uav[16] utilizationCountChargeState 56
scalar OsgEarthNet.uav[16] utilizationCountOverdrawnAfterMission 0
scalar OsgEarthNet.uav[16] utilizationCountIdleState 56
scalar OsgEarthNet.uav[16] utilizationFail 0
scalar OsgEarthNet.uav[16] simulationTime 259200
scalar OsgEarthNet.uav[17] utilizationSecMission 30235.137342348
scalar OsgEarthNet.uav[17] utilizationSecMaintenance 18046.2754898
scalar OsgEarthNet.uav[17] utilizationSecCharge 185440
scalar OsgEarthNet.uav[17] utilizationSecIdle 25478.586167852
scalar OsgEarthNet.uav[17] utilizationEnergyMission 146860.59502792
scalar OsgEarthNet.uav[17] utilizationEnergyMaintenance 85697.997642517
scalar OsgEarthNet.uav[17] utilizationEnergyCharge 231745.23144531
scalar OsgEarthNet.uav[17] utilizationEnergyOverdrawMission 0
scalar OsgEarthNet.uav[17] utilizationEnergyOverdrawMaintenance 0
scalar OsgEarthNet.uav[17] utilizationCountMissions 57
scalar OsgEarthNet.uav[17] utilizationCountManeuversMission 969
scalar OsgEarthNet.uav[17] utilizationCountManeuversMaintenance 114
scalar OsgEarthNet.uav[17] utilizationCountChargeState 57
scalar OsgEarthNet.uav[17] utilizationCountOverdrawnAfterMission 0
scalar OsgEarthNet.uav[17] utilizationCountIdleState 56
scalar OsgEarthNet.uav[17] utilizationFail 0
scalar OsgEarthNet.uav[17] simulationTime 259200
scalar OsgEarthNet.uav[18] utilizationSecMission 33467.354325539
scalar OsgEarthNet.uav[18] utilizationSecMaintenance 15701.988447268
scalar OsgEarthNet.uav[18] utilizationSecCharge 182834.30600637
scalar OsgEarthNet.uav[18] utilizationSecIdle 27196.350220821
scalar OsgEarthNet.uav[18] utilizationEnergyMission 162912.2211113
scalar OsgEarthNet.uav[18] utilizationEnergyMaintenance 72041.821456909
scalar OsgEarthNet.uav[18] utilizationEnergyCharge 237161.16162109
scalar OsgEarthNet.uav[18] utilizationEnergyOverdrawMission 0
scalar OsgEarthNet.uav[18] utilizationEnergyOverdrawMaintenance 0
scalar OsgEarthNet.uav[18] utilizationCountMissions 52
scalar OsgEarthNet.uav[18] utilizationCountManeuversMission 1254
scalar OsgEarthNet.uav[18] utilizationCountManeuversMaintenance 104
scalar OsgEarthNet.uav[18] utilizationCountChargeState 52
scalar OsgEarthNet.uav[18] utilizationCountOverdrawnAfterMission 0
scalar OsgEarthNet.uav[18] utilizationCountIdleState 51
scalar OsgEarthNet.uav[18] utilizationFail 0
scalar OsgEarthNet.uav[18] simulationTime 259200
scalar OsgEarthNet.uav[19] utilizationSecMission 19677.243792213
scalar OsgEarthNet.uav[19] utilizationSecMaintenance 13001.455420773
scalar OsgEarthNet.uav[19] utilizationSecCharge 120126.0292129
scalar OsgEarthNet.uav[19] utilizationSecIdle 106395.27057412
scalar OsgEarthNet.uav[19] utilizationEnergyMission 96800.491687775
scalar OsgEarthNet.uav[19] utilizationEnergyMaintenance 61430.418075561
scalar OsgEarthNet.uav[19] utilizationEnergyCharge 155293.15234375
scalar OsgEarthNet.uav[19] utilizationEnergyOverdrawMission 0
scalar OsgEarthNet.uav[19] utilizationEnergyOverdrawMaintenance 0
scalar OsgEarthNet.uav[19] utilizationCountMissions 35
scalar OsgEarthNet.uav[19] utilizationCountManeuversMission 676
scalar OsgEarthNet.uav[19] utilizationCountManeuversMaintenance 70
scalar OsgEarthNet.uav[19] utilizationCountChargeState 35
scalar OsgEarthNet.uav[19] utilizationCountOverdrawnAfterMission 0
scalar OsgEarthNet.uav[19] utilizationCountIdleState 35
scalar OsgEarthNet.uav[19] utilizationFail 0
scalar OsgEarthNet.uav[19] simulationTime 259200
scalar OsgEarthNet.uav[20] utilizationSecMission 22409.893366205
scalar OsgEarthNet.uav[20] utilizationSecMaintenance 13656.472695847
scalar OsgEarthNet.uav[20] utilizationSecCharge 133640.24082041
scalar OsgEarthNet.uav[20] utilizationSecIdle 89493.392117534
scalar OsgEarthNet.uav[20] utilizationEnergyMission 107759.61317062
scalar OsgEarthNet.uav[20] utilizationEnergyMaintenance 64560.503498077
scalar OsgEarthNet.uav[20] utilizationEnergyCharge 172199.68505859
scalar OsgEarthNet.uav[20] utilizationEnergyOverdrawMission 0
scalar OsgEarthNet.uav[20] utilizationEnergyOverdrawMaintenance 0
scalar OsgEarthNet.uav[20] utilizationCountMissions 38
scalar OsgEarthNet.uav[20] utilizationCountManeuversMission 721
scalar OsgEarthNet.uav[20] utilizationCountManeuversMaintenance 76
scalar OsgEarthNet.uav[20] utilizationCountChargeState 38
scalar OsgEarthNet.uav[20] utilizationCountOverdrawnAfterMission 0
scalar OsgEarthNet.uav[20] utilizationCountIdleState 38
scalar OsgEarthNet.uav[20] utilizationFail 0
scalar OsgEarthNet.uav[20] simulationTime 259200
scalar OsgEarthNet.uav[21] utilizationSecMission 29614.580249944
scalar OsgEarthNet.uav[21] utilizationSecMaintenance 17995.398475911
scalar OsgEarthNet.uav[21] utilizationSecCharge 182220
scalar OsgEarthNet.uav[21] utilizationSecIdle 29370.020274145
scalar OsgEarthNet.uav[21] utilizationEnergyMission 141910.69093805
scalar OsgEarthNet.uav[21] utilizationEnergyMaintenance 84559.749961853
scalar OsgEarthNet.uav[21] utilizationEnergyCharge 225552.98974609
scalar OsgEarthNet.uav[21] utilizationEnergyOverdrawMission 0
scalar OsgEarthNet.uav[21] utilizationEnergyOverdrawMaintenance 0
scalar OsgEarthNet.uav[21] utilizationCountMissions 57
scalar OsgEarthNet.uav[21] utilizationCountManeuversMission 864
scalar OsgEarthNet.uav[21] utilizationCountManeuversMaintenance 115
scalar OsgEarthNet.uav[21] utilizationCountChargeState 57
scalar OsgEarthNet.uav[21] utilizationCountOverdrawnAfterMission 0
scalar OsgEarthNet.uav[21] utilizationCountIdleState 58
scalar OsgEarthNet.uav[21] utilizationFail 0
scalar OsgEarthNet.uav[21] simulationTime 259200
scalar OsgEarthNet.uav[22] utilizationSecMission 34321.599617955
scalar OsgEarthNet.uav[22] utilizationSecMaintenance 15128.547896878
scalar OsgEarthNet.uav[22] utilizationSecCharge 184367.85148517
scalar OsgEarthNet.uav[22] utilizationSecIdle 25382
scalar OsgEarthNet.uav[22] utilizationEnergyMission 170129.60238647
scalar OsgEarthNet.uav[22] utilizationEnergyMaintenance 70806.110336304
scalar OsgEarthNet.uav[22] utilizationEnergyCharge 239562.99609375
scalar OsgEarthNet.uav[22] utilizationEnergyOverdrawMission 0
scalar OsgEarthNet.uav[22] utilizationEnergyOverdrawMaintenance 0
scalar OsgEarthNet.uav[22] utilizationCountMissions 52
scalar OsgEarthNet.uav[22] utilizationCountManeuversMission 1155
scalar OsgEarthNet.uav[22] utilizationCountManeuversMaintenance 104
scalar OsgEarthNet.uav[22] utilizationCountChargeState 52
scalar OsgEarthNet.uav[22] utilizationCountOverdrawnAfterMission 0
scalar OsgEarthNet.uav[22] utilizationCountIdleState 51
scalar OsgEarthNet.uav[22] utilizationFail 0
scalar OsgEarthNet.uav[22] simulationTime 259200
scalar OsgEarthNet.uav[23] utilizationSecMission 35310.020525829
scalar OsgEarthNet.uav[23] utilizationSecMaintenance 14757.945564152
scalar OsgEarthNet.uav[23] utilizationSecCharge 182340.03291002
scalar OsgEarthNet.uav[23] utilizationSecIdle 26792
scalar OsgEarthNet.uav[23] utilizationEnergyMission 171827.80877686
scalar OsgEarthNet.uav[23] utilizationEnergyMaintenance 68253.285568237
scalar OsgEarthNet.uav[23] utilizationEnergyCharge 237083.45336914
scalar OsgEarthNet.uav[23] utilizationEnergyOverdrawMission 0
scalar OsgEarthNet.uav[23] utilizationEnergyOverdrawMaintenance 0
scalar OsgEarthNet.uav[23] utilizationCountMissions 52
scalar OsgEarthNet.uav[23] utilizationCountManeuversMission 1194
scalar OsgEarthNet.uav[23] utilizationCountManeuversMaintenance 103
scalar OsgEarthNet.uav[23] utilizationCountChargeState 52
scalar OsgEarthNet.uav[23] utilizationCountOverdrawnAfterMission 0
scalar OsgEarthNet.uav[23] utilizationCountIdleState 50
scalar OsgEarthNet.uav[23] utilizationFail 0
scalar OsgEarthNet.uav[23] simulationTime 259200
scalar OsgEarthNet.uav[24] utilizationSecMission 36262.603837619
scalar OsgEarthNet.uav[24] utilizationSecMaintenance 12832.381142689
scalar OsgEarthNet.uav[24] utilizationSecCharge 180260
scalar OsgEarthNet.uav[24] utilizationSecIdle 29845.014019692
scalar OsgEarthNet.uav[24] utilizationEnergyMission 175513.63431549
scalar OsgEarthNet.uav[24] utilizationEnergyMaintenance 59743.579975128
scalar OsgEarthNet.uav[24] utilizationEnergyCharge 234558.25488281
scalar OsgEarthNet.uav[24] utilizationEnergyOverdrawMission 0
scalar OsgEarthNet.uav[24] utilizationEnergyOverdrawMaintenance 0
scalar OsgEarthNet.uav[24] utilizationCountMissions 50
scalar OsgEarthNet.uav[24] utilizationCountManeuversMission 1033
scalar OsgEarthNet.uav[24] utilizationCountManeuversMaintenance 100
scalar OsgEarthNet.uav[24] utilizationCountChargeState 50
scalar OsgEarthNet.uav[24] utilizationCountOverdrawnAfterMission 0
scalar OsgEarthNet.uav[24] utilizationCountIdleState 51
scalar OsgEarthNet.uav[24] utilizationFail 0
scalar OsgEarthNet.uav[24] simulationTime 259200
scalar OsgEarthNet.uav[25] utilizationSecMission 34299.070759804
scalar OsgEarthNet.uav[25] utilizationSecMaintenance 14504.222877654
scalar OsgEarthNet.uav[25] utilizationSecCharge 180480
scalar OsgEarthNet.uav[25] utilizationSecIdle 29916.705362542
scalar OsgEarthNet.uav[25] utilizationEnergyMission 166889.387146
scalar OsgEarthNet.uav[25] utilizationEnergyMaintenance 65999.865522151
scalar OsgEarthNet.uav[25] utilizationEnergyCharge 234178.63720703
scalar OsgEarthNet.uav[25] utilizationEnergyOverdrawMission 0
scalar OsgEarthNet.uav[25] utilizationEnergyOverdrawMaintenance 0
scalar OsgEarthNet.uav[25] utilizationCountMissions 51
scalar OsgEarthNet.uav[25] utilizationCountManeuversMission 1135
scalar OsgEarthNet.uav[25] utilizationCountManeuversMaintenance 103
scalar OsgEarthNet.uav[25] utilizationCountChargeState 51
scalar OsgEarthNet.uav[25] utilizationCountOverdrawnAfterMission 0
scalar OsgEarthNet.uav[25] utilizationCountIdleState 50
scalar OsgEarthNet.uav[25] utilizationFail 0
scalar OsgEarthNet.uav[25] simulationTime 259200
scalar OsgEarthNet.uav[26] utilizationSecMission 25942.761090356
scalar OsgEarthNet.uav[26] utilizationSecMaintenance 14907.566391651
scalar OsgEarthNet.uav[26] utilizationSecCharge 151217.66751799
scalar OsgEarthNet.uav[26] utilizationSecIdle 67132.004
scalar OsgEarthNet.uav[26] utilizationEnergyMission 123686.52662659
scalar OsgEarthNet.uav[26] utilizationEnergyMaintenance 70365.569431305
scalar OsgEarthNet.uav[26] utilizationEnergyCharge 195747.51806641
scalar OsgEarthNet.uav[26] utilizationEnergyOverdrawMission 0
scalar OsgEarthNet.uav[26] utilizationEnergyOverdrawMaintenance 0
scalar OsgEarthNet.uav[26] utilizationCountMissions 43
scalar OsgEarthNet.uav[26] utilizationCountManeuversMission 772
scalar OsgEarthNet.uav[26] utilizationCountManeuversMaintenance 86
scalar OsgEarthNet.uav[26] utilizationCountChargeState 43
scalar OsgEarthNet.uav[26] utilizationCountOverdrawnAfterMission 0
scalar OsgEarthNet.uav[26] utilizationCountIdleState 43
scalar OsgEarthNet.uav[26] utilizationFail 0
scalar OsgEarthNet.uav[26] simulationTime 259200
scalar OsgEarthNet.uav[27] utilizationSecMission 30748.230166814
scalar OsgEarthNet.uav[27] utilizationSecMaintenance 17478.00542621
scalar OsgEarthNet.uav[27] utilizationSecCharge 183861.75840698
scalar OsgEarthNet.uav[27] utilizationSecIdle 27112.005
scalar OsgEarthNet.uav[27] utilizationEnergyMission 150505.06674194
scalar OsgEarthNet.uav[27] utilizationEnergyMaintenance 83182.317169189
scalar OsgEarthNet.uav[27] utilizationEnergyCharge 232071.87817383
scalar OsgEarthNet.uav[27] utilizationEnergyOverdrawMission 0
scalar OsgEarthNet.uav[27] utilizationEnergyOverdrawMaintenance 0
scalar OsgEarthNet.uav[27] utilizationCountMissions 56
scalar OsgEarthNet.uav[27] utilizationCountManeuversMission 944
scalar OsgEarthNet.uav[27] utilizationCountManeuversMaintenance 112
scalar OsgEarthNet.uav[27] utilizationCountChargeState 56
scalar OsgEarthNet.uav[27] utilizationCountOverdrawnAfterMission 0
scalar OsgEarthNet.uav[27] utilizationCountIdleState 55
scalar OsgEarthNet.uav[27] utilizationFail 0
scalar OsgEarthNet.uav[27] simulationTime 259200
scalar OsgEarthNet.uav[28] utilizationSecMission 34741.040832305
scalar OsgEarthNet.uav[28] utilizationSecMaintenance 14834.645694944
scalar OsgEarthNet.uav[28] utilizationSecCharge 182082.31147275
scalar OsgEarthNet.uav[28] utilizationSecIdle 27542.001
scalar OsgEarthNet.uav[28] utilizationEnergyMission 168883.28778839
scalar OsgEarthNet.uav[28] utilizationEnergyMaintenance 68420.008255005
scalar OsgEarthNet.uav[28] utilizationEnergyCharge 236669.13842773
scalar OsgEarthNet.uav[28] utilizationEnergyOverdrawMission 0
scalar OsgEarthNet.uav[28] utilizationEnergyOverdrawMaintenance 0
scalar OsgEarthNet.uav[28] utilizationCountMissions 52
scalar OsgEarthNet.uav[28] utilizationCountManeuversMission 1059
scalar OsgEarthNet.uav[28] utilizationCountManeuversMaintenance 104
scalar OsgEarthNet.uav[28] utilizationCountChargeState 52
scalar OsgEarthNet.uav[28] utilizationCountOverdrawnAfterMission 0
scalar OsgEarthNet.uav[28] utilizationCountIdleState 50
scalar OsgEarthNet.uav[28] utilizationFail 0
scalar OsgEarthNet.uav[28] simulationTime 259200
scalar OsgEarthNet.uav[29] utilizationSecMission 24099.744402534
scalar OsgEarthNet.uav[29] utilizationSecMaintenance 15193.831443294
scalar OsgEarthNet.uav[29] utilizationSecCharge 146840
scalar OsgEarthNet.uav[29] utilizationSecIdle 73066.423154172
scalar OsgEarthNet.uav[29] utilizationEnergyMission 114866.28543854
scalar OsgEarthNet.uav[29] utilizationEnergyMaintenance 72248.245933532
scalar OsgEarthNet.uav[29] utilizationEnergyCharge 188803.98291016
scalar OsgEarthNet.uav[29] utilizationEnergyOverdrawMission 0
scalar OsgEarthNet.uav[29] utilizationEnergyOverdrawMaintenance 0
scalar OsgEarthNet.uav[29] utilizationCountMissions 42
scalar OsgEarthNet.uav[29] utilizationCountManeuversMission 793
scalar OsgEarthNet.uav[29] utilizationCountManeuversMaintenance 84
scalar OsgEarthNet.uav[29] utilizationCountChargeState 42
scalar OsgEarthNet.uav[29] utilizationCountOverdrawnAfterMission 0
scalar OsgEarthNet.uav[29] utilizationCountIdleState 43
scalar OsgEarthNet.uav[29] utilizationFail 0
scalar OsgEarthNet.uav[29] simulationTime 259200
scalar OsgEarthNet.uav[30] utilizationSecMission 25924.745623176
scalar OsgEarthNet.uav[30] utilizationSecMaintenance 12984.568869188
scalar OsgEarthNet.uav[30] utilizationSecCharge 143766.04008571
scalar OsgEarthNet.uav[30] utilizationSecIdle 76524.644421923
scalar OsgEarthNet.uav[30] utilizationEnergyMission 125221.07507324
scalar OsgEarthNet.uav[30] utilizationEnergyMaintenance 61529.311790466
scalar OsgEarthNet.uav[30] utilizationEnergyCharge 186428.93603516
scalar OsgEarthNet.uav[30] utilizationEnergyOverdrawMission 0
scalar OsgEarthNet.uav[30] utilizationEnergyOverdrawMaintenance 0
scalar OsgEarthNet.uav[30] utilizationCountMissions 41
scalar OsgEarthNet.uav[30] utilizationCountManeuversMission 676
scalar OsgEarthNet.uav[30] utilizationCountManeuversMaintenance 82
scalar OsgEarthNet.uav[30] utilizationCountChargeState 41
scalar OsgEarthNet.uav[30] utilizationCountOverdrawnAfterMission 0
scalar OsgEarthNet.uav[30] utilizationCountIdleState 41
scalar OsgEarthNet.uav[30] utilizationFail 0
scalar OsgEarthNet.uav[30] simulationTime 259200
scalar OsgEarthNet.uav[31] utilizationSecMission 30669.739980404
scalar OsgEarthNet.uav[31] utilizationSecMaintenance 16693.706201256
scalar OsgEarthNet.uav[31] utilizationSecCharge 183390
scalar OsgEarthNet.uav[31] utilizationSecIdle 28446.55281834
scalar OsgEarthNet.uav[31] utilizationEnergyMission 147394.87195587
scalar OsgEarthNet.uav[31] utilizationEnergyMaintenance 79804.602928162
scalar OsgEarthNet.uav[31] utilizationEnergyCharge 227630.88769531
scalar OsgEarthNet.uav[31] utilizationEnergyOverdrawMission 0
scalar OsgEarthNet.uav[31] utilizationEnergyOverdrawMaintenance 0
scalar OsgEarthNet.uav[31] utilizationCountMissions 57
scalar OsgEarthNet.uav[31] utilizationCountManeuversMission 800
scalar OsgEarthNet.uav[31] utilizationCountManeuversMaintenance 114
scalar OsgEarthNet.uav[31] utilizationCountChargeState 57
scalar OsgEarthNet.uav[31] utilizationCountOverdrawnAfterMission 0
scalar OsgEarthNet.uav[31] utilizationCountIdleState 58
scalar OsgEarthNet.uav[31] utilizationFail 0
scalar OsgEarthNet.uav[31] simulationTime 259200
scalar OsgEarthNet.uav[32] utilizationSecMission 34560.056215721
scalar OsgEarthNet.uav[32] utilizationSecMaintenance 14796.417453047
scalar OsgEarthNet.uav[32] utilizationSecCharge 180680
scalar OsgEarthNet.uav[32] utilizationSecIdle 29163.525331232
scalar OsgEarthNet.uav[32] utilizationEnergyMission 165877.59798197
scalar OsgEarthNet.uav[32] utilizationEnergyMaintenance 68461.500247955
scalar OsgEarthNet.uav[32] utilizationEnergyCharge 233582.80517578
scalar OsgEarthNet.uav[32] utilizationEnergyOverdrawMission 0
scalar OsgEarthNet.uav[32] utilizationEnergyOverdrawMaintenance 0
scalar OsgEarthNet.uav[32] utilizationCountMissions 51
scalar OsgEarthNet.uav[32] utilizationCountManeuversMission 1020
scalar OsgEarthNet.uav[32] utilizationCountManeuversMaintenance 103
scalar OsgEarthNet.uav[32] utilizationCountChargeState 51
scalar OsgEarthNet.uav[32] utilizationCountOverdrawnAfterMission 0
scalar OsgEarthNet.uav[32] utilizationCountIdleState 51
scalar OsgEarthNet.uav[32] utilizationFail 0
scalar OsgEarthNet.uav[32] simulationTime 259200
scalar OsgEarthNet.uav[33] utilizationSecMission 25248.126983544
scalar OsgEarthNet.uav[33] utilizationSecMaintenance 17723.202901075
scalar OsgEarthNet.uav[33] utilizationSecCharge 161490
scalar OsgEarthNet.uav[33] utilizationSecIdle 54738.669115381
scalar OsgEarthNet.uav[33] utilizationEnergyMission 123873.90885162
scalar OsgEarthNet.uav[33] utilizationEnergyMaintenance 84445.151294708
scalar OsgEarthNet.uav[33] utilizationEnergyCharge 207852.89013672
scalar OsgEarthNet.uav[33] utilizationEnergyOverdrawMission 0
scalar OsgEarthNet.uav[33] utilizationEnergyOverdrawMaintenance 0
scalar OsgEarthNet.uav[33] utilizationCountMissions 46
scalar OsgEarthNet.uav[33] utilizationCountManeuversMission 924
scalar OsgEarthNet.uav[33] utilizationCountManeuversMaintenance 92
scalar OsgEarthNet.uav[33] utilizationCountChargeState 46
scalar OsgEarthNet.uav[33] utilizationCountOverdrawnAfterMission 0
scalar OsgEarthNet.uav[33] utilizationCountIdleState 47
scalar OsgEarthNet.uav[33] utilizationFail 0
scalar OsgEarthNet.uav[33] simulationTime 259200
scalar OsgEarthNet.uav[34] utilizationSecMission 30083.32682124
scalar OsgEarthNet.uav[34] utilizationSecMaintenance 18776.458803352
scalar OsgEarthNet.uav[34] utilizationSecCharge 185818.20937541
scalar OsgEarthNet.uav[34] utilizationSecIdle 24522.004
scalar OsgEarthNet.uav[34] utilizationEnergyMission 145392.07278061
scalar OsgEarthNet.uav[34] utilizationEnergyMaintenance 88388.750072479
scalar OsgEarthNet.uav[34] utilizationEnergyCharge 234095.20678711
scalar OsgEarthNet.uav[34] utilizationEnergyOverdrawMission 0
scalar OsgEarthNet.uav[34] utilizationEnergyOverdrawMaintenance 0
scalar OsgEarthNet.uav[34] utilizationCountMissions 57
scalar OsgEarthNet.uav[34] utilizationCountManeuversMission 990
scalar OsgEarthNet.uav[34] utilizationCountManeuversMaintenance 114
scalar OsgEarthNet.uav[34] utilizationCountChargeState 57
scalar OsgEarthNet.uav[34] utilizationCountOverdrawnAfterMission 0
scalar OsgEarthNet.uav[34] utilizationCountIdleState 57
scalar OsgEarthNet.uav[34] utilizationFail 0
scalar OsgEarthNet.uav[34] simulationTime 259200
scalar OsgEarthNet.uav[35] utilizationSecMission 34719.03051449
scalar OsgEarthNet.uav[35] utilizationSecMaintenance 15713.319937703
scalar OsgEarthNet.uav[35] utilizationSecCharge 183145.64754781
scalar OsgEarthNet.uav[35] utilizationSecIdle 25622.001
scalar OsgEarthNet.uav[35] utilizationEnergyMission 172192.79994965
scalar OsgEarthNet.uav[35] utilizationEnergyMaintenance 72728.35300827
scalar OsgEarthNet.uav[35] utilizationEnergyCharge 237497.58361816
scalar OsgEarthNet.uav[35] utilizationEnergyOverdrawMission 0
scalar OsgEarthNet.uav[35] utilizationEnergyOverdrawMaintenance 0
scalar OsgEarthNet.uav[35] utilizationCountMissions 53
scalar OsgEarthNet.uav[35] utilizationCountManeuversMission 1201
scalar OsgEarthNet.uav[35] utilizationCountManeuversMaintenance 106
scalar OsgEarthNet.uav[35] utilizationCountChargeState 53
scalar OsgEarthNet.uav[35] utilizationCountOverdrawnAfterMission 0
scalar OsgEarthNet.uav[35] utilizationCountIdleState 51
scalar OsgEarthNet.uav[35] utilizationFail 0
scalar OsgEarthNet.uav[35] simulationTime 259200
scalar OsgEarthNet.uav[36] utilizationSecMission 34370.841272835
scalar OsgEarthNet.uav[36] utilizationSecMaintenance 14767.195286027
scalar OsgEarthNet.uav[36] utilizationSecCharge 180830
scalar OsgEarthNet.uav[36] utilizationSecIdle 29231.962441138
scalar OsgEarthNet.uav[36] utilizationEnergyMission 168912.25953674
scalar OsgEarthNet.uav[36] utilizationEnergyMaintenance 68670.249984741
scalar OsgEarthNet.uav[36] utilizationEnergyCharge 234197.26904297
scalar OsgEarthNet.uav[36] utilizationEnergyOverdrawMission 0
scalar OsgEarthNet.uav[36] utilizationEnergyOverdrawMaintenance 0
scalar OsgEarthNet.uav[36] utilizationCountMissions 51
scalar OsgEarthNet.uav[36] utilizationCountManeuversMission 1164
scalar OsgEarthNet.uav[36] utilizationCountManeuversMaintenance 102
scalar OsgEarthNet.uav[36] utilizationCountChargeState 51
scalar OsgEarthNet.uav[36] utilizationCountOverdrawnAfterMission 0
scalar OsgEarthNet.uav[36] utilizationCountIdleState 51
scalar OsgEarthNet.uav[36] utilizationFail 0
scalar OsgEarthNet.uav[36] simulationTime 259200
scalar OsgEarthNet.uav[37] utilizationSecMission 30826.7218685
scalar OsgEarthNet.uav[37] utilizationSecMaintenance 17491.2701315
scalar OsgEarthNet.uav[37] utilizationSecCharge 182360
scalar OsgEarthNet.uav[37] utilizationSecIdle 28522.007
scalar OsgEarthNet.uav[37] utilizationEnergyMission 149585.48445511
scalar OsgEarthNet.uav[37] utilizationEnergyMaintenance 82703.419705791
scalar OsgEarthNet.uav[37] utilizationEnergyCharge 229691.45922852
scalar OsgEarthNet.uav[37] utilizationEnergyOverdrawMission 0
scalar OsgEarthNet.uav[37] utilizationEnergyOverdrawMaintenance 0
scalar OsgEarthNet.uav[37] utilizationCountMissions 56
scalar OsgEarthNet.uav[37] utilizationCountManeuversMission 933
scalar OsgEarthNet.uav[37] utilizationCountManeuversMaintenance 112
scalar OsgEarthNet.uav[37] utilizationCountChargeState 55
scalar OsgEarthNet.uav[37] utilizationCountOverdrawnAfterMission 0
scalar OsgEarthNet.uav[37] utilizationCountIdleState 55
scalar OsgEarthNet.uav[37] utilizationFail 0
scalar OsgEarthNet.uav[37] simulationTime 259200
scalar OsgEarthNet.uav[38] utilizationSecMission 35781.891830112
scalar OsgEarthNet.uav[38] utilizationSecMaintenance 14629.90717895
scalar OsgEarthNet.uav[38] utilizationSecCharge 183156.19999094
scalar OsgEarthNet.uav[38] utilizationSecIdle 25632
scalar OsgEarthNet.uav[38] utilizationEnergyMission 174406.64805154
scalar OsgEarthNet.uav[38] utilizationEnergyMaintenance 66964.511581421
scalar OsgEarthNet.uav[38] utilizationEnergyCharge 239165.42578125
scalar OsgEarthNet.uav[38] utilizationEnergyOverdrawMission 0
scalar OsgEarthNet.uav[38] utilizationEnergyOverdrawMaintenance 0
scalar OsgEarthNet.uav[38] utilizationCountMissions 52
scalar OsgEarthNet.uav[38] utilizationCountManeuversMission 1187
scalar OsgEarthNet.uav[38] utilizationCountManeuversMaintenance 103
scalar OsgEarthNet.uav[38] utilizationCountChargeState 52
scalar OsgEarthNet.uav[38] utilizationCountOverdrawnAfterMission 0
scalar OsgEarthNet.uav[38] utilizationCountIdleState 51
scalar OsgEarthNet.uav[38] utilizationFail 0
scalar OsgEarthNet.uav[38] simulationTime 259200
scalar OsgEarthNet.uav[39] utilizationSecMission 23176.379809533
scalar OsgEarthNet.uav[39] utilizationSecMaintenance 16071.606190467
scalar OsgEarthNet.uav[39] utilizationSecCharge 147230
scalar OsgEarthNet.uav[39] utilizationSecIdle 72722.013
scalar OsgEarthNet.uav[39] utilizationEnergyMission 114878.05622111
scalar OsgEarthNet.uav[39] utilizationEnergyMaintenance 76769.277793884
scalar OsgEarthNet.uav[39] utilizationEnergyCharge 189590.38183594
scalar OsgEarthNet.uav[39] utilizationEnergyOverdrawMission 0
scalar OsgEarthNet.uav[39] utilizationEnergyOverdrawMaintenance 0
scalar OsgEarthNet.uav[39] utilizationCountMissions 42
scalar OsgEarthNet.uav[39] utilizationCountManeuversMission 839
scalar OsgEarthNet.uav[39] utilizationCountManeuversMaintenance 85
scalar OsgEarthNet.uav[39] utilizationCountChargeState 42
scalar OsgEarthNet.uav[39] utilizationCountOverdrawnAfterMission 0
scalar OsgEarthNet.uav[39] utilizationCountIdleState 43
scalar OsgEarthNet.uav[39] utilizationFail 0
scalar OsgEarthNet.uav[39] simulationTime 259200
scalar OsgEarthNet.uav[40] utilizationSecMission 26780.885632615
scalar OsgEarthNet.uav[40] utilizationSecMaintenance 16956.97355424
scalar OsgEarthNet.uav[40] utilizationSecCharge 161590
scalar OsgEarthNet.uav[40] utilizationSecIdle 53872.139813144
scalar OsgEarthNet.uav[40] utilizationEnergyMission 129516.72237778
scalar OsgEarthNet.uav[40] utilizationEnergyMaintenance 80673.517272453
scalar OsgEarthNet.uav[40] utilizationEnergyCharge 208249.14013672
scalar OsgEarthNet.uav[40] utilizationEnergyOverdrawMission 0
scalar OsgEarthNet.uav[40] utilizationEnergyOverdrawMaintenance 0
scalar OsgEarthNet.uav[40] utilizationCountMissions 47
scalar OsgEarthNet.uav[40] utilizationCountManeuversMission 892
scalar OsgEarthNet.uav[40] utilizationCountManeuversMaintenance 94
scalar OsgEarthNet.uav[40] utilizationCountChargeState 46
scalar OsgEarthNet.uav[40] utilizationCountOverdrawnAfterMission 0
scalar OsgEarthNet.uav[40] utilizationCountIdleState 47
scalar OsgEarthNet.uav[40] utilizationFail 0
scalar OsgEarthNet.uav[40] simulationTime 259200
scalar OsgEarthNet.uav[41] utilizationSecMission 31584.172613279
scalar OsgEarthNet.uav[41] utilizationSecMaintenance 16380.640466772
scalar OsgEarthNet.uav[41] utilizationSecCharge 181953.18337446
scalar OsgEarthNet.uav[41] utilizationSecIdle 29282.002545487
scalar OsgEarthNet.uav[41] utilizationEnergyMission 149895.63034439
scalar OsgEarthNet.uav[41] utilizationEnergyMaintenance 77230.831382751
scalar OsgEarthNet.uav[41] utilizationEnergyCharge 227115.54125977
scalar OsgEarthNet.uav[41] utilizationEnergyOverdrawMission 0
scalar OsgEarthNet.uav[41] utilizationEnergyOverdrawMaintenance 0
scalar OsgEarthNet.uav[41] utilizationCountMissions 57
scalar OsgEarthNet.uav[41] utilizationCountManeuversMission 753
scalar OsgEarthNet.uav[41] utilizationCountManeuversMaintenance 114
scalar OsgEarthNet.uav[41] utilizationCountChargeState 57
scalar OsgEarthNet.uav[41] utilizationCountOverdrawnAfterMission 0
scalar OsgEarthNet.uav[41] utilizationCountIdleState 57
scalar OsgEarthNet.uav[41] utilizationFail 0
scalar OsgEarthNet.uav[41] simulationTime 259200
scalar OsgEarthNet.uav[42] utilizationSecMission 34858.994024369
scalar OsgEarthNet.uav[42] utilizationSecMaintenance 14124.832943453
scalar OsgEarthNet.uav[42] utilizationSecCharge 181394.16803218
scalar OsgEarthNet.uav[42] utilizationSecIdle 28822.004
scalar OsgEarthNet.uav[42] utilizationEnergyMission 171072.1090889
scalar OsgEarthNet.uav[42] utilizationEnergyMaintenance 65502.039737701
scalar OsgEarthNet.uav[42] utilizationEnergyCharge 235837.15185547
scalar OsgEarthNet.uav[42] utilizationEnergyOverdrawMission 0
scalar OsgEarthNet.uav[42] utilizationEnergyOverdrawMaintenance 0
scalar OsgEarthNet.uav[42] utilizationCountMissions 51
scalar OsgEarthNet.uav[42] utilizationCountManeuversMission 1184
scalar OsgEarthNet.uav[42] utilizationCountManeuversMaintenance 102
scalar OsgEarthNet.uav[42] utilizationCountChargeState 51
scalar OsgEarthNet.uav[42] utilizationCountOverdrawnAfterMission 0
scalar OsgEarthNet.uav[42] utilizationCountIdleState 51
scalar OsgEarthNet.uav[42] utilizationFail 0
scalar OsgEarthNet.uav[42] simulationTime 259200
scalar OsgEarthNet.uav[43] utilizationSecMission 27440.994707695
scalar OsgEarthNet.uav[43] utilizationSecMaintenance 17457.298092935
scalar OsgEarthNet.uav[43] utilizationSecCharge 165069.70619937
scalar OsgEarthNet.uav[43] utilizationSecIdle 49232
scalar OsgEarthNet.uav[43] utilizationEnergyMission 132602.72911072
scalar OsgEarthNet.uav[43] utilizationEnergyMaintenance 82712.315002441
scalar OsgEarthNet.uav[43] utilizationEnergyCharge 212786.80078125
scalar OsgEarthNet.uav[43] utilizationEnergyOverdrawMission 0
scalar OsgEarthNet.uav[43] utilizationEnergyOverdrawMaintenance 0
scalar OsgEarthNet.uav[43] utilizationCountMissions 48
scalar OsgEarthNet.uav[43] utilizationCountManeuversMission 908
scalar OsgEarthNet.uav[43] utilizationCountManeuversMaintenance 96
scalar OsgEarthNet.uav[43] utilizationCountChargeState 48
scalar OsgEarthNet.uav[43] utilizationCountOverdrawnAfterMission 0
scalar OsgEarthNet.uav[43] utilizationCountIdleState 48
scalar OsgEarthNet.uav[43] utilizationFail 0
scalar OsgEarthNet.uav[43] simulationTime 259200
scalar OsgEarthNet.uav[44] utilizationSecMission 32049.721290889
scalar OsgEarthNet.uav[44] utilizationSecMaintenance 16656.474795542
scalar OsgEarthNet.uav[44] utilizationSecCharge 183080
scalar OsgEarthNet.uav[44] utilizationSecIdle 27413.802913569
scalar OsgEarthNet.uav[44] utilizationEnergyMission 154195.90779377
scalar OsgEarthNet.uav[44] utilizationEnergyMaintenance 80247.921844482
scalar OsgEarthNet.uav[44] utilizationEnergyCharge 231330.44995117
scalar OsgEarthNet.uav[44] utilizationEnergyOverdrawMission 0
scalar OsgEarthNet.uav[44] utilizationEnergyOverdrawMaintenance 0
scalar OsgEarthNet.uav[44] utilizationCountMissions 55
scalar OsgEarthNet.uav[44] utilizationCountManeuversMission 916
scalar OsgEarthNet.uav[44] utilizationCountManeuversMaintenance 111
scalar OsgEarthNet.uav[44] utilizationCountChargeState 55
scalar OsgEarthNet.uav[44] utilizationCountOverdrawnAfterMission 0
scalar OsgEarthNet.uav[44] utilizationCountIdleState 55
scalar OsgEarthNet.uav[44] utilizationFail 0
scalar OsgEarthNet.uav[44] simulationTime 259200
scalar OsgEarthNet.uav[45] utilizationSecMission 35927.526639378
scalar OsgEarthNet.uav[45] utilizationSecMaintenance 14259.870977329
scalar OsgEarthNet.uav[45] utilizationSecCharge 182690.60138329
scalar OsgEarthNet.uav[45] utilizationSecIdle 26322
scalar OsgEarthNet.uav[45] utilizationEnergyMission 176192.70194244
scalar OsgEarthNet.uav[45] utilizationEnergyMaintenance 65884.19833374
scalar OsgEarthNet.uav[45] utilizationEnergyCharge 238645.83422852
scalar OsgEarthNet.uav[45] utilizationEnergyOverdrawMission 0
scalar OsgEarthNet.uav[45] utilizationEnergyOverdrawMaintenance 0
scalar OsgEarthNet.uav[45] utilizationCountMissions 52
scalar OsgEarthNet.uav[45] utilizationCountManeuversMission 1192
scalar OsgEarthNet.uav[45] utilizationCountManeuversMaintenance 104
scalar OsgEarthNet.uav[45] utilizationCountChargeState 52
scalar OsgEarthNet.uav[45] utilizationCountOverdrawnAfterMission 0
scalar OsgEarthNet.uav[45] utilizationCountIdleState 51
scalar OsgEarthNet.uav[45] utilizationFail 0
scalar OsgEarthNet.uav[45] simulationTime 259200
scalar OsgEarthNet.uav[46] utilizationSecMission 27250.518518786
scalar OsgEarthNet.uav[46] utilizationSecMaintenance 17876.54444763
scalar OsgEarthNet.uav[46] utilizationSecCharge 165611.42237263
scalar OsgEarthNet.uav[46] utilizationSecIdle 48461.51366095
scalar OsgEarthNet.uav[46] utilizationEnergyMission 133507.56892395
scalar OsgEarthNet.uav[46] utilizationEnergyMaintenance 84627.770244598
scalar OsgEarthNet.uav[46] utilizationEnergyCharge 213465.22167969
scalar OsgEarthNet.uav[46] utilizationEnergyOverdrawMission 0
scalar OsgEarthNet.uav[46] utilizationEnergyOverdrawMaintenance 0
scalar OsgEarthNet.uav[46] utilizationCountMissions 48
scalar OsgEarthNet.uav[46] utilizationCountManeuversMission 937
scalar OsgEarthNet.uav[46] utilizationCountManeuversMaintenance 96
scalar OsgEarthNet.uav[46] utilizationCountChargeState 48
scalar OsgEarthNet.uav[46] utilizationCountOverdrawnAfterMission 0
scalar OsgEarthNet.uav[46] utilizationCountIdleState 48
scalar OsgEarthNet.uav[46] utilizationFail 0
scalar OsgEarthNet.uav[46] simulationTime 259200
scalar OsgEarthNet.uav[47] utilizationSecMission 32333.218474863
scalar OsgEarthNet.uav[47] utilizationSecMaintenance 16566.319360794
scalar OsgEarthNet.uav[47] utilizationSecCharge 183642.10756146
scalar OsgEarthNet.uav[47] utilizationSecIdle 26658.353602879
scalar OsgEarthNet.uav[47] utilizationEnergyMission 155531.95033646
scalar OsgEarthNet.uav[47] utilizationEnergyMaintenance 79160.05242157
scalar OsgEarthNet.uav[47] utilizationEnergyCharge 230204.10546875
scalar OsgEarthNet.uav[47] utilizationEnergyOverdrawMission 0
scalar OsgEarthNet.uav[47] utilizationEnergyOverdrawMaintenance 0
scalar OsgEarthNet.uav[47] utilizationCountMissions 57
scalar OsgEarthNet.uav[47] utilizationCountManeuversMission 795
scalar OsgEarthNet.uav[47] utilizationCountManeuversMaintenance 114
scalar OsgEarthNet.uav[47] utilizationCountChargeState 57
scalar OsgEarthNet.uav[47] utilizationCountOverdrawnAfterMission 0
scalar OsgEarthNet.uav[47] utilizationCountIdleState 56
scalar OsgEarthNet.uav[47] utilizationFail 0
scalar OsgEarthNet.uav[47] simulationTime 259200
scalar OsgEarthNet.uav[48] utilizationSecMission 35019.624488039
scalar OsgEarthNet.uav[48] utilizationSecMaintenance 14598.371511962
scalar OsgEarthNet.uav[48] utilizationSecCharge 181100
scalar OsgEarthNet.uav[48] utilizationSecIdle 28482.003
scalar OsgEarthNet.uav[48] utilizationEnergyMission 171425.70627341
scalar OsgEarthNet.uav[48] utilizationEnergyMaintenance 67124.225711823
scalar OsgEarthNet.uav[48] utilizationEnergyCharge 234593.83251953
scalar OsgEarthNet.uav[48] utilizationEnergyOverdrawMission 0
scalar OsgEarthNet.uav[48] utilizationEnergyOverdrawMaintenance 0
scalar OsgEarthNet.uav[48] utilizationCountMissions 51
scalar OsgEarthNet.uav[48] utilizationCountManeuversMission 1197
scalar OsgEarthNet.uav[48] utilizationCountManeuversMaintenance 103
scalar OsgEarthNet.uav[48] utilizationCountChargeState 51
scalar OsgEarthNet.uav[48] utilizationCountOverdrawnAfterMission 0
scalar OsgEarthNet.uav[48] utilizationCountIdleState 50
scalar OsgEarthNet.uav[48] utilizationFail 0
scalar OsgEarthNet.uav[48] simulationTime 259200
scalar OsgEarthNet.uav[49] utilizationSecMission 26964.107208539
scalar OsgEarthNet.uav[49] utilizationSecMaintenance 17109.022483782
scalar OsgEarthNet.uav[49] utilizationSecCharge 166474.86130768
scalar OsgEarthNet.uav[49] utilizationSecIdle 48652.008
scalar OsgEarthNet.uav[49] utilizationEnergyMission 129191.48338318
scalar OsgEarthNet.uav[49] utilizationEnergyMaintenance 81063.544113159
scalar OsgEarthNet.uav[49] utilizationEnergyCharge 208149.95898438
scalar OsgEarthNet.uav[49] utilizationEnergyOverdrawMission 0
scalar OsgEarthNet.uav[49] utilizationEnergyOverdrawMaintenance 0
scalar OsgEarthNet.uav[49] utilizationCountMissions 52
scalar OsgEarthNet.uav[49] utilizationCountManeuversMission 747
scalar OsgEarthNet.uav[49] utilizationCountManeuversMaintenance 104
scalar OsgEarthNet.uav[49] utilizationCountChargeState 52
scalar OsgEarthNet.uav[49] utilizationCountOverdrawnAfterMission 0
scalar OsgEarthNet.uav[49] utilizationCountIdleState 52
scalar OsgEarthNet.uav[49] utilizationFail 0
scalar OsgEarthNet.uav[49] simulationTime 259200
scalar OsgEarthNet.uav[50] utilizationSecMission 34313.467360758
scalar OsgEarthNet.uav[50] utilizationSecMaintenance 15104.386899294
scalar OsgEarthNet.uav[50] utilizationSecCharge 181370
scalar OsgEarthNet.uav[50] utilizationSecIdle 28412.144739949
scalar OsgEarthNet.uav[50] utilizationEnergyMission 168766.48850923
scalar OsgEarthNet.uav[50] utilizationEnergyMaintenance 69479.431533814
scalar OsgEarthNet.uav[50] utilizationEnergyCharge 235092.94287109
scalar OsgEarthNet.uav[50] utilizationEnergyOverdrawMission 0
scalar OsgEarthNet.uav[50] utilizationEnergyOverdrawMaintenance 0
scalar OsgEarthNet.uav[50] utilizationCountMissions 51
scalar OsgEarthNet.uav[50] utilizationCountManeuversMission 1203
scalar OsgEarthNet.uav[50] utilizationCountManeuversMaintenance 103
scalar OsgEarthNet.uav[50] utilizationCountChargeState 51
scalar OsgEarthNet.uav[50] utilizationCountOverdrawnAfterMission 0
scalar OsgEarthNet.uav[50] utilizationCountIdleState 51
scalar OsgEarthNet.uav[50] utilizationFail 0
scalar OsgEarthNet.uav[50] simulationTime 259200
scalar OsgEarthNet.uav[51] utilizationSecMission 31072.499457493
scalar OsgEarthNet.uav[51] utilizationSecMaintenance 17989.209570912
scalar OsgEarthNet.uav[51] utilizationSecCharge 185523.58427256
scalar OsgEarthNet.uav[51] utilizationSecIdle 24614.705699036
scalar OsgEarthNet.uav[51] utilizationEnergyMission 149562.90322495
scalar OsgEarthNet.uav[51] utilizationEnergyMaintenance 84502.802452087
scalar OsgEarthNet.uav[51] utilizationEnergyCharge 233401.73217773
scalar OsgEarthNet.uav[51] utilizationEnergyOverdrawMission 0
scalar OsgEarthNet.uav[51] utilizationEnergyOverdrawMaintenance 0
scalar OsgEarthNet.uav[51] utilizationCountMissions 57
scalar OsgEarthNet.uav[51] utilizationCountManeuversMission 897
scalar OsgEarthNet.uav[51] utilizationCountManeuversMaintenance 114
scalar OsgEarthNet.uav[51] utilizationCountChargeState 57
scalar OsgEarthNet.uav[51] utilizationCountOverdrawnAfterMission 0
scalar OsgEarthNet.uav[51] utilizationCountIdleState 56
scalar OsgEarthNet.uav[51] utilizationFail 0
scalar OsgEarthNet.uav[51] simulationTime 259200
scalar OsgEarthNet.uav[52] utilizationSecMission 34529.573151345
scalar OsgEarthNet.uav[52] utilizationSecMaintenance 15385.507643396
scalar OsgEarthNet.uav[52] utilizationSecCharge 184295.69859134
scalar OsgEarthNet.uav[52] utilizationSecIdle 24989.219613916
scalar OsgEarthNet.uav[52] utilizationEnergyMission 169536.69674301
scalar OsgEarthNet.uav[52] utilizationEnergyMaintenance 70709.15133667
scalar OsgEarthNet.uav[52] utilizationEnergyCharge 240316.01611328
scalar OsgEarthNet.uav[52] utilizationEnergyOverdrawMission 0
scalar OsgEarthNet.uav[52] utilizationEnergyOverdrawMaintenance 0
scalar OsgEarthNet.uav[52] utilizationCountMissions 52
scalar OsgEarthNet.uav[52] utilizationCountManeuversMission 1142
scalar OsgEarthNet.uav[52] utilizationCountManeuversMaintenance 104
scalar OsgEarthNet.uav[52] utilizationCountChargeState 52
scalar OsgEarthNet.uav[52] utilizationCountOverdrawnAfterMission 0
scalar OsgEarthNet.uav[52] utilizationCountIdleState 51
scalar OsgEarthNet.uav[52] utilizationFail 0
scalar OsgEarthNet.uav[52] simulationTime 259200
scalar OsgEarthNet.uav[53] utilizationSecMission 24810.002441285
scalar OsgEarthNet.uav[53] utilizationSecMaintenance 15608.171170386
scalar OsgEarthNet.uav[53] utilizationSecCharge 149419.81338833
scalar OsgEarthNet.uav[53] utilizationSecIdle 69362.012
scalar OsgEarthNet.uav[53] utilizationEnergyMission 121514.38279343
scalar OsgEarthNet.uav[53] utilizationEnergyMaintenance 73817.312198639
scalar OsgEarthNet.uav[53] utilizationEnergyCharge 193515.70117188
scalar OsgEarthNet.uav[53] utilizationEnergyOverdrawMission 0
scalar OsgEarthNet.uav[53] utilizationEnergyOverdrawMaintenance 0
scalar OsgEarthNet.uav[53] utilizationCountMissions 43
scalar OsgEarthNet.uav[53] utilizationCountManeuversMission 824
scalar OsgEarthNet.uav[53] utilizationCountManeuversMaintenance 86
scalar OsgEarthNet.uav[53] utilizationCountChargeState 43
scalar OsgEarthNet.uav[53] utilizationCountOverdrawnAfterMission 0
scalar OsgEarthNet.uav[53] utilizationCountIdleState 43
scalar OsgEarthNet.uav[53] utilizationFail 0
scalar OsgEarthNet.uav[53] simulationTime 259200
scalar OsgEarthNet.uav[54] utilizationSecMission 28297.19851244
scalar OsgEarthNet.uav[54] utilizationSecMaintenance 19804.542827982
scalar OsgEarthNet.uav[54] utilizationSecCharge 184696.24965958
scalar OsgEarthNet.uav[54] utilizationSecIdle 26402.008
scalar OsgEarthNet.uav[54] utilizationEnergyMission 139085.28850555
scalar OsgEarthNet.uav[54] utilizationEnergyMaintenance 94870.035392761
scalar OsgEarthNet.uav[54] utilizationEnergyCharge 230496.5291748
scalar OsgEarthNet.uav[54] utilizationEnergyOverdrawMission 0
scalar OsgEarthNet.uav[54] utilizationEnergyOverdrawMaintenance 0
scalar OsgEarthNet.uav[54] utilizationCountMissions 58
scalar OsgEarthNet.uav[54] utilizationCountManeuversMission 1019
scalar OsgEarthNet.uav[54] utilizationCountManeuversMaintenance 116
scalar OsgEarthNet.uav[54] utilizationCountChargeState 58
scalar OsgEarthNet.uav[54] utilizationCountOverdrawnAfterMission 0
scalar OsgEarthNet.uav[54] utilizationCountIdleState 57
scalar OsgEarthNet.uav[54] utilizationFail 0
scalar OsgEarthNet.uav[54] simulationTime 259200
scalar OsgEarthNet.uav[55] utilizationSecMission 34811.058347737
scalar OsgEarthNet.uav[55] utilizationSecMaintenance 15400.648992835
scalar OsgEarthNet.uav[55] utilizationSecCharge 182899.11654902
scalar OsgEarthNet.uav[55] utilizationSecIdle 26089.175110411
scalar OsgEarthNet.uav[55] utilizationEnergyMission 169469.17664719
scalar OsgEarthNet.uav[55] utilizationEnergyMaintenance 70973.461776733
scalar OsgEarthNet.uav[55] utilizationEnergyCharge 238429.10400391
scalar OsgEarthNet.uav[55] utilizationEnergyOverdrawMission 0
scalar OsgEarthNet.uav[55] utilizationEnergyOverdrawMaintenance 0
scalar OsgEarthNet.uav[55] utilizationCountMissions 52
scalar OsgEarthNet.uav[55] utilizationCountManeuversMission 1107
scalar OsgEarthNet.uav[55] utilizationCountManeuversMaintenance 104
scalar OsgEarthNet.uav[55] utilizationCountChargeState 52
scalar OsgEarthNet.uav[55] utilizationCountOverdrawnAfterMission 0
scalar OsgEarthNet.uav[55] utilizationCountIdleState 50
scalar OsgEarthNet.uav[55] utilizationFail 0
scalar OsgEarthNet.uav[55] simulationTime 259200
scalar OsgEarthNet.uav[56] utilizationSecMission 25589.377288704
scalar OsgEarthNet.uav[56] utilizationSecMaintenance 17040.008544253
scalar OsgEarthNet.uav[56] utilizationSecCharge 161630
scalar OsgEarthNet.uav[56] utilizationSecIdle 54940.613167043
scalar OsgEarthNet.uav[56] utilizationEnergyMission 125580.45449066
scalar OsgEarthNet.uav[56] utilizationEnergyMaintenance 81699.807025909
scalar OsgEarthNet.uav[56] utilizationEnergyCharge 208060.16455078
scalar OsgEarthNet.uav[56] utilizationEnergyOverdrawMission 0
scalar OsgEarthNet.uav[56] utilizationEnergyOverdrawMaintenance 0
scalar OsgEarthNet.uav[56] utilizationCountMissions 46
scalar OsgEarthNet.uav[56] utilizationCountManeuversMission 889
scalar OsgEarthNet.uav[56] utilizationCountManeuversMaintenance 92
scalar OsgEarthNet.uav[56] utilizationCountChargeState 46
scalar OsgEarthNet.uav[56] utilizationCountOverdrawnAfterMission 0
scalar OsgEarthNet.uav[56] utilizationCountIdleState 47
scalar OsgEarthNet.uav[56] utilizationFail 0
scalar OsgEarthNet.uav[56] simulationTime 259200
scalar OsgEarthNet.uav[57] utilizationSecMission 30953.152705048
scalar OsgEarthNet.uav[57] utilizationSecMaintenance 17323.073553298
scalar OsgEarthNet.uav[57] utilizationSecCharge 184061.77274165
scalar OsgEarthNet.uav[57] utilizationSecIdle 26862
scalar OsgEarthNet.uav[57] utilizationEnergyMission 147607.75650406
scalar OsgEarthNet.uav[57] utilizationEnergyMaintenance 82290.596855164
scalar OsgEarthNet.uav[57] utilizationEnergyCharge 229159.46606445
scalar OsgEarthNet.uav[57] utilizationEnergyOverdrawMission 0
scalar OsgEarthNet.uav[57] utilizationEnergyOverdrawMaintenance 0
scalar OsgEarthNet.uav[57] utilizationCountMissions 58
scalar OsgEarthNet.uav[57] utilizationCountManeuversMission 860
scalar OsgEarthNet.uav[57] utilizationCountManeuversMaintenance 116
scalar OsgEarthNet.uav[57] utilizationCountChargeState 58
scalar OsgEarthNet.uav[57] utilizationCountOverdrawnAfterMission 0
scalar OsgEarthNet.uav[57] utilizationCountIdleState 56
scalar OsgEarthNet.uav[57] utilizationFail 0
scalar OsgEarthNet.uav[57] simulationTime 259200
scalar OsgEarthNet.uav[58] utilizationSecMission 37113.644300254
scalar OsgEarthNet.uav[58] utilizationSecMaintenance 12873.357747674
scalar OsgEarthNet.uav[58] utilizationSecCharge 181450.99495207
scalar OsgEarthNet.uav[58] utilizationSecIdle 27762.002
scalar OsgEarthNet.uav[58] utilizationEnergyMission 178416.66009903
scalar OsgEarthNet.uav[58] utilizationEnergyMaintenance 61033.570362091
scalar OsgEarthNet.uav[58] utilizationEnergyCharge 237295.9475708
scalar OsgEarthNet.uav[58] utilizationEnergyOverdrawMission 0
scalar OsgEarthNet.uav[58] utilizationEnergyOverdrawMaintenance 0
scalar OsgEarthNet.uav[58] utilizationCountMissions 51
scalar OsgEarthNet.uav[58] utilizationCountManeuversMission 1037
scalar OsgEarthNet.uav[58] utilizationCountManeuversMaintenance 102
scalar OsgEarthNet.uav[58] utilizationCountChargeState 51
scalar OsgEarthNet.uav[58] utilizationCountOverdrawnAfterMission 0
scalar OsgEarthNet.uav[58] utilizationCountIdleState 50
scalar OsgEarthNet.uav[58] utilizationFail 0
scalar OsgEarthNet.uav[58] simulationTime 259200
scalar OsgEarthNet.uav[59] utilizationSecMission 30972.051106983
scalar OsgEarthNet.uav[59] utilizationSecMaintenance 15991.965413536
scalar OsgEarthNet.uav[59] utilizationSecCharge 175240.08575317
scalar OsgEarthNet.uav[59] utilizationSecIdle 36995.896726312
scalar OsgEarthNet.uav[59] utilizationEnergyMission 149292.61494446
scalar OsgEarthNet.uav[59] utilizationEnergyMaintenance 76191.087982178
scalar OsgEarthNet.uav[59] utilizationEnergyCharge 218551.29986572
scalar OsgEarthNet.uav[59] utilizationEnergyOverdrawMission 0
scalar OsgEarthNet.uav[59] utilizationEnergyOverdrawMaintenance 0
scalar OsgEarthNet.uav[59] utilizationCountMissions 55
scalar OsgEarthNet.uav[59] utilizationCountManeuversMission 810
scalar OsgEarthNet.uav[59] utilizationCountManeuversMaintenance 110
scalar OsgEarthNet.uav[59] utilizationCountChargeState 55
scalar OsgEarthNet.uav[59] utilizationCountOverdrawnAfterMission 0
scalar OsgEarthNet.uav[59] utilizationCountIdleState 55
scalar OsgEarthNet.uav[59] utilizationFail 0
scalar OsgEarthNet.uav[59] simulationTime 259200
scalar OsgEarthNet.uav[60] utilizationSecMission 26454.627416038
scalar OsgEarthNet.uav[60] utilizationSecMaintenance 17003.360583962
scalar OsgEarthNet.uav[60] utilizationSecCharge 162030
scalar OsgEarthNet.uav[60] utilizationSecIdle 53712.011
scalar OsgEarthNet.uav[60] utilizationEnergyMission 129995.55356395
scalar OsgEarthNet.uav[60] utilizationEnergyMaintenance 80897.309577942
scalar OsgEarthNet.uav[60] utilizationEnergyCharge 208807.29003906
scalar OsgEarthNet.uav[60] utilizationEnergyOverdrawMission 0
scalar OsgEarthNet.uav[60] utilizationEnergyOverdrawMaintenance 0
scalar OsgEarthNet.uav[60] utilizationCountMissions 46
scalar OsgEarthNet.uav[60] utilizationCountManeuversMission 876
scalar OsgEarthNet.uav[60] utilizationCountManeuversMaintenance 93
scalar OsgEarthNet.uav[60] utilizationCountChargeState 46
scalar OsgEarthNet.uav[60] utilizationCountOverdrawnAfterMission 0
scalar OsgEarthNet.uav[60] utilizationCountIdleState 47
scalar OsgEarthNet.uav[60] utilizationFail 0
scalar OsgEarthNet.uav[60] simulationTime 259200
scalar OsgEarthNet.uav[61] utilizationSecMission 32812.857579237
scalar OsgEarthNet.uav[61] utilizationSecMaintenance 16720.024624661
scalar OsgEarthNet.uav[61] utilizationSecCharge 184495.1167961
scalar OsgEarthNet.uav[61] utilizationSecIdle 25172
scalar OsgEarthNet.uav[61] utilizationEnergyMission 157216.03610611
scalar OsgEarthNet.uav[61] utilizationEnergyMaintenance 78763.609771728
scalar OsgEarthNet.uav[61] utilizationEnergyCharge 233068.17749023
scalar OsgEarthNet.uav[61] utilizationEnergyOverdrawMission 0
scalar OsgEarthNet.uav[61] utilizationEnergyOverdrawMaintenance 0
scalar OsgEarthNet.uav[61] utilizationCountMissions 56
scalar OsgEarthNet.uav[61] utilizationCountManeuversMission 914
scalar OsgEarthNet.uav[61] utilizationCountManeuversMaintenance 111
scalar OsgEarthNet.uav[61] utilizationCountChargeState 56
scalar OsgEarthNet.uav[61] utilizationCountOverdrawnAfterMission 0
scalar OsgEarthNet.uav[61] utilizationCountIdleState 56
scalar OsgEarthNet.uav[61] utilizationFail 0
scalar OsgEarthNet.uav[61] simulationTime 259200
scalar OsgEarthNet.uav[62] utilizationSecMission 33941.566694221
scalar OsgEarthNet.uav[62] utilizationSecMaintenance 15815.17505475
scalar OsgEarthNet.uav[62] utilizationSecCharge 181741.25525103
scalar OsgEarthNet.uav[62] utilizationSecIdle 27702.002
scalar OsgEarthNet.uav[62] utilizationEnergyMission 165692.75518799
scalar OsgEarthNet.uav[62] utilizationEnergyMaintenance 73144.005264282
scalar OsgEarthNet.uav[62] utilizationEnergyCharge 236431.08496094
scalar OsgEarthNet.uav[62] utilizationEnergyOverdrawMission 0
scalar OsgEarthNet.uav[62] utilizationEnergyOverdrawMaintenance 0
scalar OsgEarthNet.uav[62] utilizationCountMissions 52
scalar OsgEarthNet.uav[62] utilizationCountManeuversMission 1070
scalar OsgEarthNet.uav[62] utilizationCountManeuversMaintenance 104
scalar OsgEarthNet.uav[62] utilizationCountChargeState 52
scalar OsgEarthNet.uav[62] utilizationCountOverdrawnAfterMission 0
scalar OsgEarthNet.uav[62] utilizationCountIdleState 50
scalar OsgEarthNet.uav[62] utilizationFail 0
scalar OsgEarthNet.uav[62] simulationTime 259200
scalar OsgEarthNet.uav[63] utilizationSecMission 27862.979240515
scalar OsgEarthNet.uav[63] utilizationSecMaintenance 16059.068298748
scalar OsgEarthNet.uav[63] utilizationSecCharge 161585.93746074
scalar OsgEarthNet.uav[63] utilizationSecIdle 53692.014
scalar OsgEarthNet.uav[63] utilizationEnergyMission 135624.66623688
scalar OsgEarthNet.uav[63] utilizationEnergyMaintenance 75871.546222687
scalar OsgEarthNet.uav[63] utilizationEnergyCharge 208017.91455078
scalar OsgEarthNet.uav[63] utilizationEnergyOverdrawMission 0
scalar OsgEarthNet.uav[63] utilizationEnergyOverdrawMaintenance 0
scalar OsgEarthNet.uav[63] utilizationCountMissions 47
scalar OsgEarthNet.uav[63] utilizationCountManeuversMission 834
scalar OsgEarthNet.uav[63] utilizationCountManeuversMaintenance 94
scalar OsgEarthNet.uav[63] utilizationCountChargeState 47
scalar OsgEarthNet.uav[63] utilizationCountOverdrawnAfterMission 0
scalar OsgEarthNet.uav[63] utilizationCountIdleState 47
scalar OsgEarthNet.uav[63] utilizationFail 0
scalar OsgEarthNet.uav[63] simulationTime 259200
scalar OsgEarthNet.uav[64] utilizationSecMission 31886.818783595
scalar OsgEarthNet.uav[64] utilizationSecMaintenance 16607.132084991
scalar OsgEarthNet.uav[64] utilizationSecCharge 180034.04213141
scalar OsgEarthNet.uav[64] utilizationSecIdle 30672.006
scalar OsgEarthNet.uav[64] utilizationEnergyMission 156162.91672134
scalar OsgEarthNet.uav[64] utilizationEnergyMaintenance 77435.273628235
scalar OsgEarthNet.uav[64] utilizationEnergyCharge 230587.37646484
scalar OsgEarthNet.uav[64] utilizationEnergyOverdrawMission 0
scalar OsgEarthNet.uav[64] utilizationEnergyOverdrawMaintenance 0
scalar OsgEarthNet.uav[64] utilizationCountMissions 53
scalar OsgEarthNet.uav[64] utilizationCountManeuversMission 1132
scalar OsgEarthNet.uav[64] utilizationCountManeuversMaintenance 106
scalar OsgEarthNet.uav[64] utilizationCountChargeState 53
scalar OsgEarthNet.uav[64] utilizationCountOverdrawnAfterMission 0
scalar OsgEarthNet.uav[64] utilizationCountIdleState 53
scalar OsgEarthNet.uav[64] utilizationFail 0
scalar OsgEarthNet.uav[64] simulationTime 259200
scalar OsgEarthNet.uav[65] utilizationSecMission 37723.25935086
scalar OsgEarthNet.uav[65] utilizationSecMaintenance 12455.450955528
scalar OsgEarthNet.uav[65] utilizationSecCharge 181239.28869361
scalar OsgEarthNet.uav[65] utilizationSecIdle 27782
scalar OsgEarthNet.uav[65] utilizationEnergyMission 179948.80560034
scalar OsgEarthNet.uav[65] utilizationEnergyMaintenance 57934.949344635
scalar OsgEarthNet.uav[65] utilizationEnergyCharge 236855.53149414
scalar OsgEarthNet.uav[65] utilizationEnergyOverdrawMission 0
scalar OsgEarthNet.uav[65] utilizationEnergyOverdrawMaintenance 0
scalar OsgEarthNet.uav[65] utilizationCountMissions 51
scalar OsgEarthNet.uav[65] utilizationCountManeuversMission 1128
scalar OsgEarthNet.uav[65] utilizationCountManeuversMaintenance 101
scalar OsgEarthNet.uav[65] utilizationCountChargeState 51
scalar OsgEarthNet.uav[65] utilizationCountOverdrawnAfterMission 0
scalar OsgEarthNet.uav[65] utilizationCountIdleState 50
scalar OsgEarthNet.uav[65] utilizationFail 0
scalar OsgEarthNet.uav[65] simulationTime 259200
scalar OsgEarthNet.uav[66] utilizationSecMission 28499.739778336
scalar OsgEarthNet.uav[66] utilizationSecMaintenance 16760.029840348
scalar OsgEarthNet.uav[66] utilizationSecCharge 166178.22938132
scalar OsgEarthNet.uav[66] utilizationSecIdle 47762
scalar OsgEarthNet.uav[66] utilizationEnergyMission 138327.59499359
scalar OsgEarthNet.uav[66] utilizationEnergyMaintenance 79793.65423584
scalar OsgEarthNet.uav[66] utilizationEnergyCharge 214811.52392578
scalar OsgEarthNet.uav[66] utilizationEnergyOverdrawMission 0
scalar OsgEarthNet.uav[66] utilizationEnergyOverdrawMaintenance 0
scalar OsgEarthNet.uav[66] utilizationCountMissions 48
scalar OsgEarthNet.uav[66] utilizationCountManeuversMission 897
scalar OsgEarthNet.uav[66] utilizationCountManeuversMaintenance 95
scalar OsgEarthNet.uav[66] utilizationCountChargeState 48
scalar OsgEarthNet.uav[66] utilizationCountOverdrawnAfterMission 0
scalar OsgEarthNet.uav[66] utilizationCountIdleState 48
scalar OsgEarthNet.uav[66] utilizationFail 0
scalar OsgEarthNet.uav[66] simulationTime 259200
scalar OsgEarthNet.uav[67] utilizationSecMission 32425.57383651
scalar OsgEarthNet.uav[67] utilizationSecMaintenance 16367.313039006
scalar OsgEarthNet.uav[67] utilizationSecCharge 182149.30651736
scalar OsgEarthNet.uav[67] utilizationSecIdle 28257.80560712
scalar OsgEarthNet.uav[67] utilizationEnergyMission 155381.15997314
scalar OsgEarthNet.uav[67] utilizationEnergyMaintenance 77666.523662567
scalar OsgEarthNet.uav[67] utilizationEnergyCharge 229290.35620117
scalar OsgEarthNet.uav[67] utilizationEnergyOverdrawMission 0
scalar OsgEarthNet.uav[67] utilizationEnergyOverdrawMaintenance 0
scalar OsgEarthNet.uav[67] utilizationCountMissions 56
scalar OsgEarthNet.uav[67] utilizationCountManeuversMission 838
scalar OsgEarthNet.uav[67] utilizationCountManeuversMaintenance 112
scalar OsgEarthNet.uav[67] utilizationCountChargeState 56
scalar OsgEarthNet.uav[67] utilizationCountOverdrawnAfterMission 0
scalar OsgEarthNet.uav[67] utilizationCountIdleState 56
scalar OsgEarthNet.uav[67] utilizationFail 0
scalar OsgEarthNet.uav[67] simulationTime 259200
scalar OsgEarthNet.uav[68] utilizationSecMission 34252.50393654
scalar OsgEarthNet.uav[68] utilizationSecMaintenance 15729.639433383
scalar OsgEarthNet.uav[68] utilizationSecCharge 181208.22454941
scalar OsgEarthNet.uav[68] utilizationSecIdle 28009.631080665
scalar OsgEarthNet.uav[68] utilizationEnergyMission 165944.58719254
scalar OsgEarthNet.uav[68] utilizationEnergyMaintenance 72262.272018433
scalar OsgEarthNet.uav[68] utilizationEnergyCharge 234682.51123047
scalar OsgEarthNet.uav[68] utilizationEnergyOverdrawMission 0
scalar OsgEarthNet.uav[68] utilizationEnergyOverdrawMaintenance 0
scalar OsgEarthNet.uav[68] utilizationCountMissions 52
scalar OsgEarthNet.uav[68] utilizationCountManeuversMission 1082
scalar OsgEarthNet.uav[68] utilizationCountManeuversMaintenance 104
scalar OsgEarthNet.uav[68] utilizationCountChargeState 52
scalar OsgEarthNet.uav[68] utilizationCountOverdrawnAfterMission 0
scalar OsgEarthNet.uav[68] utilizationCountIdleState 50
scalar OsgEarthNet.uav[68] utilizationFail 0
scalar OsgEarthNet.uav[68] simulationTime 259200
scalar OsgEarthNet.uav[69] utilizationSecMission 26559.744402534
scalar OsgEarthNet.uav[69] utilizationSecMaintenance 17518.357399512
scalar OsgEarthNet.uav[69] utilizationSecCharge 163949.88819795
scalar OsgEarthNet.uav[69] utilizationSecIdle 51172.009
scalar OsgEarthNet.uav[69] utilizationEnergyMission 127391.55227661
scalar OsgEarthNet.uav[69] utilizationEnergyMaintenance 83729.449542999
scalar OsgEarthNet.uav[69] utilizationEnergyCharge 212235.31738281
scalar OsgEarthNet.uav[69] utilizationEnergyOverdrawMission 0
scalar OsgEarthNet.uav[69] utilizationEnergyOverdrawMaintenance 0
scalar OsgEarthNet.uav[69] utilizationCountMissions 47
scalar OsgEarthNet.uav[69] utilizationCountManeuversMission 916
scalar OsgEarthNet.uav[69] utilizationCountManeuversMaintenance 94
scalar OsgEarthNet.uav[69] utilizationCountChargeState 47
scalar OsgEarthNet.uav[69] utilizationCountOverdrawnAfterMission 0
scalar OsgEarthNet.uav[69] utilizationCountIdleState 47
scalar OsgEarthNet.uav[69] utilizationFail 0
scalar OsgEarthNet.uav[69] simulationTime 259200
scalar OsgEarthNet.uav[70] utilizationSecMission 35379.161717428
scalar OsgEarthNet.uav[70] utilizationSecMaintenance 14579.888026907
scalar OsgEarthNet.uav[70] utilizationSecCharge 180900
scalar OsgEarthNet.uav[70] utilizationSecIdle 28340.949255665
scalar OsgEarthNet.uav[70] utilizationEnergyMission 173000.40675735
scalar OsgEarthNet.uav[70] utilizationEnergyMaintenance 66913.358128372
scalar OsgEarthNet.uav[70] utilizationEnergyCharge 233960.11865234
scalar OsgEarthNet.uav[70] utilizationEnergyOverdrawMission 0
scalar OsgEarthNet.uav[70] utilizationEnergyOverdrawMaintenance 0
scalar OsgEarthNet.uav[70] utilizationCountMissions 52
scalar OsgEarthNet.uav[70] utilizationCountManeuversMission 1241
scalar OsgEarthNet.uav[70] utilizationCountManeuversMaintenance 104
scalar OsgEarthNet.uav[70] utilizationCountChargeState 51
scalar OsgEarthNet.uav[70] utilizationCountOverdrawnAfterMission 0
scalar OsgEarthNet.uav[70] utilizationCountIdleState 51
scalar OsgEarthNet.uav[70] utilizationFail 0
scalar OsgEarthNet.uav[70] simulationTime 259200
scalar OsgEarthNet.uav[71] utilizationSecMission 31971.778941673
scalar OsgEarthNet.uav[71] utilizationSecMaintenance 16589.089042791
scalar OsgEarthNet.uav[71] utilizationSecCharge 184780
scalar OsgEarthNet.uav[71] utilizationSecIdle 25859.131015536
scalar OsgEarthNet.uav[71] utilizationEnergyMission 153120.3380661
scalar OsgEarthNet.uav[71] utilizationEnergyMaintenance 78320.904979706
scalar OsgEarthNet.uav[71] utilizationEnergyCharge 230350.32592773
scalar OsgEarthNet.uav[71] utilizationEnergyOverdrawMission 0
scalar OsgEarthNet.uav[71] utilizationEnergyOverdrawMaintenance 0
scalar OsgEarthNet.uav[71] utilizationCountMissions 57
scalar OsgEarthNet.uav[71] utilizationCountManeuversMission 814
scalar OsgEarthNet.uav[71] utilizationCountManeuversMaintenance 114
scalar OsgEarthNet.uav[71] utilizationCountChargeState 57
scalar OsgEarthNet.uav[71] utilizationCountOverdrawnAfterMission 0
scalar OsgEarthNet.uav[71] utilizationCountIdleState 58
scalar OsgEarthNet.uav[71] utilizationFail 0
scalar OsgEarthNet.uav[71] simulationTime 259200
scalar OsgEarthNet.uav[72] utilizationSecMission 34717.363081699
scalar OsgEarthNet.uav[72] utilizationSecMaintenance 15185.59014185
scalar OsgEarthNet.uav[72] utilizationSecCharge 181984.34310873
scalar OsgEarthNet.uav[72] utilizationSecIdle 27312.702667718
scalar OsgEarthNet.uav[72] utilizationEnergyMission 170614.1953125
scalar OsgEarthNet.uav[72] utilizationEnergyMaintenance 69301.415981293
scalar OsgEarthNet.uav[72] utilizationEnergyCharge 236302.85107422
scalar OsgEarthNet.uav[72] utilizationEnergyOverdrawMission 0
scalar OsgEarthNet.uav[72] utilizationEnergyOverdrawMaintenance 0
scalar OsgEarthNet.uav[72] utilizationCountMissions 52
scalar OsgEarthNet.uav[72] utilizationCountManeuversMission 1154
scalar OsgEarthNet.uav[72] utilizationCountManeuversMaintenance 104
scalar OsgEarthNet.uav[72] utilizationCountChargeState 52
scalar OsgEarthNet.uav[72] utilizationCountOverdrawnAfterMission 0
scalar OsgEarthNet.uav[72] utilizationCountIdleState 51
scalar OsgEarthNet.uav[72] utilizationFail 0
scalar OsgEarthNet.uav[72] simulationTime 259200
scalar OsgEarthNet.uav[73] utilizationSecMission 31384.236945613
scalar OsgEarthNet.uav[73] utilizationSecMaintenance 17012.042865223
scalar OsgEarthNet.uav[73] utilizationSecCharge 180291.70918916
scalar OsgEarthNet.uav[73] utilizationSecIdle 30512.01
scalar OsgEarthNet.uav[73] utilizationEnergyMission 148240.77336502
scalar OsgEarthNet.uav[73] utilizationEnergyMaintenance 82002.783538818
scalar OsgEarthNet.uav[73] utilizationEnergyCharge 226197.23883057
scalar OsgEarthNet.uav[73] utilizationEnergyOverdrawMission 0
scalar OsgEarthNet.uav[73] utilizationEnergyOverdrawMaintenance 0
scalar OsgEarthNet.uav[73] utilizationCountMissions 56
scalar OsgEarthNet.uav[73] utilizationCountManeuversMission 889
scalar OsgEarthNet.uav[73] utilizationCountManeuversMaintenance 112
scalar OsgEarthNet.uav[73] utilizationCountChargeState 56
scalar OsgEarthNet.uav[73] utilizationCountOverdrawnAfterMission 0
scalar OsgEarthNet.uav[73] utilizationCountIdleState 55
scalar OsgEarthNet.uav[73] utilizationFail 0
scalar OsgEarthNet.uav[73] simulationTime 259200
scalar OsgEarthNet.uav[74] utilizationSecMission 30169.516233543
scalar OsgEarthNet.uav[74] utilizationSecMaintenance 18781.6879772
scalar OsgEarthNet.uav[74] utilizationSecCharge 185837.83080358
scalar OsgEarthNet.uav[74] utilizationSecIdle 24410.963985674
scalar OsgEarthNet.uav[74] utilizationEnergyMission 147019.21512985
scalar OsgEarthNet.uav[74] utilizationEnergyMaintenance 90000.761009216
scalar OsgEarthNet.uav[74] utilizationEnergyCharge 234134.51928711
scalar OsgEarthNet.uav[74] utilizationEnergyOverdrawMission 0
scalar OsgEarthNet.uav[74] utilizationEnergyOverdrawMaintenance 0
scalar OsgEarthNet.uav[74] utilizationCountMissions 57
scalar OsgEarthNet.uav[74] utilizationCountManeuversMission 1015
scalar OsgEarthNet.uav[74] utilizationCountManeuversMaintenance 114
scalar OsgEarthNet.uav[74] utilizationCountChargeState 57
scalar OsgEarthNet.uav[74] utilizationCountOverdrawnAfterMission 0
scalar OsgEarthNet.uav[74] utilizationCountIdleState 57
scalar OsgEarthNet.uav[74] utilizationFail 0
scalar OsgEarthNet.uav[74] simulationTime 259200
scalar OsgEarthNet.cs[0] usedPower 4007414.8032336
scalar OsgEarthNet.cs[0] chargedPower 4007414.8032336
scalar OsgEarthNet.cs[0] chargedMobileNodes 878
scalar OsgEarthNet.cs[0] reservations 891
scalar OsgEarthNet.cs[1] usedPower 5714912.7287763
scalar OsgEarthNet.cs[1] chargedPower 5714912.7287763
scalar OsgEarthNet.cs[1] chargedMobileNodes 1382
scalar OsgEarthNet.cs[1] reservations 1416
scalar OsgEarthNet.cs[2] usedPower 6964297.2021325
scalar OsgEarthNet.cs[2] chargedPower 6964297.2021325
scalar OsgEarthNet.cs[2] chargedMobileNodes 1463
scalar OsgEarthNet.cs[2] reservations 1520

