version 2
run Szenario_Hotel_Gabelbach-234-20180712-07:18:24-17176
attr configname Szenario_Hotel_Gabelbach
attr datetime 20180712-07:18:24
attr experiment Szenario_Hotel_Gabelbach
attr inifile omnetpp.ini
attr iterationvars "$replM=2, $biWeight=0.35, $replSearchM=1, $numUAVs=150"
attr iterationvarsf replM=2,biWeight=0.35,replSearchM=1,numUAVs=150-
attr measurement "$replM=2, $biWeight=0.35, $replSearchM=1, $numUAVs=150"
attr network OsgEarthNet
attr processid 17176
attr repetition 6
attr replication #6
attr resultdir results
attr runnumber 234
attr seedset 234
itervar biWeight 0.35
itervar numUAVs 150
itervar replM 2
itervar replSearchM 1
param *.osgEarthScene.scene "\"Szenario_Hotel_Gabelbach.earth\""
param *.playgroundLatitude 50.6830269
param *.playgroundLongitude 10.8538055
param *.playgroundWidth 3500m
param *.playgroundHeight 3500m
param *.cs[0].posX 3537m
param *.cs[0].posY 965m
param *.cs[0].posZ 538m
param *.cs[1].posX 312m
param *.cs[1].posY 1262m
param *.cs[1].posZ 539m
param *.cs[2].posX 2185m
param *.cs[2].posY 3026m
param *.cs[2].posZ 777m
param *.cs[3].posX 10m
param *.cs[3].posY 2200m
param *.cs[3].posZ 560m
param *.cs[4].posX 750m
param *.cs[4].posY 200m
param *.cs[4].posZ 540m
param *.cs[5].posX 2450m
param *.cs[5].posY 180m
param *.cs[5].posZ 524m
param *.cs[6].posX 3140m
param *.cs[6].posY 1790m
param *.cs[6].posZ 606m
param *.numCSs 3
param *.uav[*].replacementMethod 2
param *.uav[*].weightedSumWeight 0.35
param *.missionControl.replacementSearchMethod 1
param *.numUAVs 150
param *.numCSs 3
param *.numUAVs 100
param *.*.timeStep 10s
param *.uav[*].commandPreviewCommandCount 20
param *.missionControl.missionFiles "\"missions\\\\Szenario_WB_Hotel_Gabelbach_Mission_Hotel.waypoints,missions\\\\Szenario_WB_Hotel_Gabelbach_Mission_Kickelhahn.waypoints,missions\\\\Szenario_WB_Hotel_Gabelbach_Mission_Ilmenau_Sportplatz.waypoints,missions\\\\Szenario_WB_Hotel_Gabelbach_Mission_Manebach_Mitte.waypoints,missions\\\\Szenario_WB_Hotel_Gabelbach_Mission_Manebach_Sued.waypoints,missions\\\\Szenario_WB_Hotel_Gabelbach_Hover_HoheSchlaufe.waypoints,missions\\\\Szenario_WB_Hotel_Gabelbach_Hover_Kickelhahn.waypoints,missions\\\\Szenario_WB_Hotel_Gabelbach_Hover_Gabelbachskopf.waypoints,missions\\\\Szenario_WB_Hotel_Gabelbach_Hover_Dachskopf.waypoints\""
param *.uav[0].startX 3537m
param *.uav[0].startY 965m
param *.uav[0].startZ 539m
param *.uav[1].startX 312m
param *.uav[1].startY 1262m
param *.uav[1].startZ 540m
param *.uav[2].startX 2185m
param *.uav[2].startY 3026m
param *.uav[2].startZ 778m
param *.uav[3].startX 3537m
param *.uav[3].startY 965m
param *.uav[3].startZ 539m
param *.uav[4].startX 312m
param *.uav[4].startY 1262m
param *.uav[4].startZ 540m
param *.uav[5].startX 2185m
param *.uav[5].startY 3026m
param *.uav[5].startZ 778m
param *.uav[6].startX 3537m
param *.uav[6].startY 965m
param *.uav[6].startZ 539m
param *.uav[7].startX 312m
param *.uav[7].startY 1262m
param *.uav[7].startZ 540m
param *.uav[8].startX 2185m
param *.uav[8].startY 3026m
param *.uav[8].startZ 778m
param *.uav[9].startX 3537m
param *.uav[9].startY 965m
param *.uav[9].startZ 539m
param *.uav[10].startX 3537m
param *.uav[10].startY 965m
param *.uav[10].startZ 539m
param *.uav[11].startX 312m
param *.uav[11].startY 1262m
param *.uav[11].startZ 540m
param *.uav[12].startX 2185m
param *.uav[12].startY 3026m
param *.uav[12].startZ 778m
param *.uav[13].startX 3537m
param *.uav[13].startY 965m
param *.uav[13].startZ 539m
param *.uav[14].startX 312m
param *.uav[14].startY 1262m
param *.uav[14].startZ 540m
param *.uav[15].startX 2185m
param *.uav[15].startY 3026m
param *.uav[15].startZ 778m
param *.uav[16].startX 3537m
param *.uav[16].startY 965m
param *.uav[16].startZ 539m
param *.uav[17].startX 312m
param *.uav[17].startY 1262m
param *.uav[17].startZ 540m
param *.uav[18].startX 2185m
param *.uav[18].startY 3026m
param *.uav[18].startZ 778m
param *.uav[19].startX 3537m
param *.uav[19].startY 965m
param *.uav[19].startZ 539m
param *.uav[20].startX 3537m
param *.uav[20].startY 965m
param *.uav[20].startZ 539m
param *.uav[21].startX 312m
param *.uav[21].startY 1262m
param *.uav[21].startZ 540m
param *.uav[22].startX 2185m
param *.uav[22].startY 3026m
param *.uav[22].startZ 778m
param *.uav[23].startX 3537m
param *.uav[23].startY 965m
param *.uav[23].startZ 539m
param *.uav[24].startX 312m
param *.uav[24].startY 1262m
param *.uav[24].startZ 540m
param *.uav[25].startX 2185m
param *.uav[25].startY 3026m
param *.uav[25].startZ 778m
param *.uav[26].startX 3537m
param *.uav[26].startY 965m
param *.uav[26].startZ 539m
param *.uav[27].startX 312m
param *.uav[27].startY 1262m
param *.uav[27].startZ 540m
param *.uav[28].startX 2185m
param *.uav[28].startY 3026m
param *.uav[28].startZ 778m
param *.uav[29].startX 3537m
param *.uav[29].startY 965m
param *.uav[29].startZ 539m
param *.uav[30].startX 3537m
param *.uav[30].startY 965m
param *.uav[30].startZ 539m
param *.uav[31].startX 312m
param *.uav[31].startY 1262m
param *.uav[31].startZ 540m
param *.uav[32].startX 2185m
param *.uav[32].startY 3026m
param *.uav[32].startZ 778m
param *.uav[33].startX 3537m
param *.uav[33].startY 965m
param *.uav[33].startZ 539m
param *.uav[34].startX 312m
param *.uav[34].startY 1262m
param *.uav[34].startZ 540m
param *.uav[35].startX 2185m
param *.uav[35].startY 3026m
param *.uav[35].startZ 778m
param *.uav[36].startX 3537m
param *.uav[36].startY 965m
param *.uav[36].startZ 539m
param *.uav[37].startX 312m
param *.uav[37].startY 1262m
param *.uav[37].startZ 540m
param *.uav[38].startX 2185m
param *.uav[38].startY 3026m
param *.uav[38].startZ 778m
param *.uav[39].startX 3537m
param *.uav[39].startY 965m
param *.uav[39].startZ 539m
param *.uav[40].startX 3537m
param *.uav[40].startY 965m
param *.uav[40].startZ 539m
param *.uav[41].startX 312m
param *.uav[41].startY 1262m
param *.uav[41].startZ 540m
param *.uav[42].startX 2185m
param *.uav[42].startY 3026m
param *.uav[42].startZ 778m
param *.uav[43].startX 3537m
param *.uav[43].startY 965m
param *.uav[43].startZ 539m
param *.uav[44].startX 312m
param *.uav[44].startY 1262m
param *.uav[44].startZ 540m
param *.uav[45].startX 2185m
param *.uav[45].startY 3026m
param *.uav[45].startZ 778m
param *.uav[46].startX 3537m
param *.uav[46].startY 965m
param *.uav[46].startZ 539m
param *.uav[47].startX 312m
param *.uav[47].startY 1262m
param *.uav[47].startZ 540m
param *.uav[48].startX 2185m
param *.uav[48].startY 3026m
param *.uav[48].startZ 778m
param *.uav[49].startX 3537m
param *.uav[49].startY 965m
param *.uav[49].startZ 539m
param *.uav[50].startX 3537m
param *.uav[50].startY 965m
param *.uav[50].startZ 539m
param *.uav[51].startX 312m
param *.uav[51].startY 1262m
param *.uav[51].startZ 540m
param *.uav[52].startX 2185m
param *.uav[52].startY 3026m
param *.uav[52].startZ 778m
param *.uav[53].startX 3537m
param *.uav[53].startY 965m
param *.uav[53].startZ 539m
param *.uav[54].startX 312m
param *.uav[54].startY 1262m
param *.uav[54].startZ 540m
param *.uav[55].startX 2185m
param *.uav[55].startY 3026m
param *.uav[55].startZ 778m
param *.uav[56].startX 3537m
param *.uav[56].startY 965m
param *.uav[56].startZ 539m
param *.uav[57].startX 312m
param *.uav[57].startY 1262m
param *.uav[57].startZ 540m
param *.uav[58].startX 2185m
param *.uav[58].startY 3026m
param *.uav[58].startZ 778m
param *.uav[59].startX 3537m
param *.uav[59].startY 965m
param *.uav[59].startZ 539m
param *.uav[60].startX 3537m
param *.uav[60].startY 965m
param *.uav[60].startZ 539m
param *.uav[61].startX 312m
param *.uav[61].startY 1262m
param *.uav[61].startZ 540m
param *.uav[62].startX 2185m
param *.uav[62].startY 3026m
param *.uav[62].startZ 778m
param *.uav[63].startX 3537m
param *.uav[63].startY 965m
param *.uav[63].startZ 539m
param *.uav[64].startX 312m
param *.uav[64].startY 1262m
param *.uav[64].startZ 540m
param *.uav[65].startX 2185m
param *.uav[65].startY 3026m
param *.uav[65].startZ 778m
param *.uav[66].startX 3537m
param *.uav[66].startY 965m
param *.uav[66].startZ 539m
param *.uav[67].startX 312m
param *.uav[67].startY 1262m
param *.uav[67].startZ 540m
param *.uav[68].startX 2185m
param *.uav[68].startY 3026m
param *.uav[68].startZ 778m
param *.uav[69].startX 3537m
param *.uav[69].startY 965m
param *.uav[69].startZ 539m
param *.uav[70].startX 3537m
param *.uav[70].startY 965m
param *.uav[70].startZ 539m
param *.uav[71].startX 312m
param *.uav[71].startY 1262m
param *.uav[71].startZ 540m
param *.uav[72].startX 2185m
param *.uav[72].startY 3026m
param *.uav[72].startZ 778m
param *.uav[73].startX 3537m
param *.uav[73].startY 965m
param *.uav[73].startZ 539m
param *.uav[74].startX 312m
param *.uav[74].startY 1262m
param *.uav[74].startZ 540m
param *.uav[75].startX 2185m
param *.uav[75].startY 3026m
param *.uav[75].startZ 778m
param *.uav[76].startX 3537m
param *.uav[76].startY 965m
param *.uav[76].startZ 539m
param *.uav[77].startX 312m
param *.uav[77].startY 1262m
param *.uav[77].startZ 540m
param *.uav[78].startX 2185m
param *.uav[78].startY 3026m
param *.uav[78].startZ 778m
param *.uav[79].startX 3537m
param *.uav[79].startY 965m
param *.uav[79].startZ 539m
param *.uav[80].startX 3537m
param *.uav[80].startY 965m
param *.uav[80].startZ 539m
param *.uav[81].startX 312m
param *.uav[81].startY 1262m
param *.uav[81].startZ 540m
param *.uav[82].startX 2185m
param *.uav[82].startY 3026m
param *.uav[82].startZ 778m
param *.uav[83].startX 3537m
param *.uav[83].startY 965m
param *.uav[83].startZ 539m
param *.uav[84].startX 312m
param *.uav[84].startY 1262m
param *.uav[84].startZ 540m
param *.uav[85].startX 2185m
param *.uav[85].startY 3026m
param *.uav[85].startZ 778m
param *.uav[86].startX 3537m
param *.uav[86].startY 965m
param *.uav[86].startZ 539m
param *.uav[87].startX 312m
param *.uav[87].startY 1262m
param *.uav[87].startZ 540m
param *.uav[88].startX 2185m
param *.uav[88].startY 3026m
param *.uav[88].startZ 778m
param *.uav[89].startX 3537m
param *.uav[89].startY 965m
param *.uav[89].startZ 539m
param *.uav[90].startX 3537m
param *.uav[90].startY 965m
param *.uav[90].startZ 539m
param *.uav[91].startX 312m
param *.uav[91].startY 1262m
param *.uav[91].startZ 540m
param *.uav[92].startX 2185m
param *.uav[92].startY 3026m
param *.uav[92].startZ 778m
param *.uav[93].startX 3537m
param *.uav[93].startY 965m
param *.uav[93].startZ 539m
param *.uav[94].startX 312m
param *.uav[94].startY 1262m
param *.uav[94].startZ 540m
param *.uav[95].startX 2185m
param *.uav[95].startY 3026m
param *.uav[95].startZ 778m
param *.uav[96].startX 3537m
param *.uav[96].startY 965m
param *.uav[96].startZ 539m
param *.uav[97].startX 312m
param *.uav[97].startY 1262m
param *.uav[97].startZ 540m
param *.uav[98].startX 2185m
param *.uav[98].startY 3026m
param *.uav[98].startZ 778m
param *.uav[99].startX 3537m
param *.uav[99].startY 965m
param *.uav[99].startZ 539m
param *.osgEarthScene.scene "\"boston.earth\""
param *.playgroundLatitude 42.3558
param *.playgroundLongitude -71.0677
param *.playgroundWidth 400m
param *.playgroundHeight 200m
param *.channelController.connectionColor "\"#0000FF40\""
param *.channelController.showConnections false
param *.uav[*].modelURL "\"quadrocopter.small.obj.15.scale.0,0,90.rot\""
param *.uav[*].labelColor "\"#FF7C00CC\""
param *.uav[*].label2Color "\"#FF7C00EE\""
param *.uav[*].batteryCapacity 5200mAh
param *.uav[*].batteryRemaining uav[index].batteryCapacity
param *.uav[*].predictionQuantile 0.95
param *.uav[*].replacementMethod 2
param *.uav[*].weightedSumWeight 0.5
param *.cs[*].modelURL "\"chargingstation_v1.osgt.2.scale.0,0,0.rot.0,0,-15e-1.trans\""
param *.cs[*].spotsWaiting 999
param *.cs[*].spotsCharging 999
param *.cs[*].chargeEffectivenessPercentage 100
param *.cs[*].nonLinearPhaseStartPercentage 85
param *.cs[*].chargeCurrent 6.0A
param *.cs[*].prioritizeFastCharge true
param *.missionControl.replacementSearchMethod 0
param *.*.timeStep 9s

scalar OsgEarthNet.uav[0] utilizationSecMission 1280.6251525803
scalar OsgEarthNet.uav[0] utilizationSecMaintenance 650.3478309462
scalar OsgEarthNet.uav[0] utilizationSecCharge 6910
scalar OsgEarthNet.uav[0] utilizationSecIdle 250359.02601647
scalar OsgEarthNet.uav[0] utilizationEnergyMission 6069.6937561035
scalar OsgEarthNet.uav[0] utilizationEnergyMaintenance 3171.7298927307
scalar OsgEarthNet.uav[0] utilizationEnergyCharge 8882.5756835938
scalar OsgEarthNet.uav[0] utilizationEnergyOverdrawMission 0
scalar OsgEarthNet.uav[0] utilizationEnergyOverdrawMaintenance 0
scalar OsgEarthNet.uav[0] utilizationCountMissions 2
scalar OsgEarthNet.uav[0] utilizationCountManeuversMission 38
scalar OsgEarthNet.uav[0] utilizationCountManeuversMaintenance 4
scalar OsgEarthNet.uav[0] utilizationCountChargeState 2
scalar OsgEarthNet.uav[0] utilizationCountOverdrawnAfterMission 0
scalar OsgEarthNet.uav[0] utilizationCountIdleState 3
scalar OsgEarthNet.uav[0] utilizationFail 0
scalar OsgEarthNet.uav[0] simulationTime 259200
scalar OsgEarthNet.uav[1] utilizationSecMission 682.94783150361
scalar OsgEarthNet.uav[1] utilizationSecMaintenance 298.15269315943
scalar OsgEarthNet.uav[1] utilizationSecCharge 3410
scalar OsgEarthNet.uav[1] utilizationSecIdle 254808.89847534
scalar OsgEarthNet.uav[1] utilizationEnergyMission 2955.4834976196
scalar OsgEarthNet.uav[1] utilizationEnergyMaintenance 1358.1534957886
scalar OsgEarthNet.uav[1] utilizationEnergyCharge 4313.6362304688
scalar OsgEarthNet.uav[1] utilizationEnergyOverdrawMission 0
scalar OsgEarthNet.uav[1] utilizationEnergyOverdrawMaintenance 0
scalar OsgEarthNet.uav[1] utilizationCountMissions 1
scalar OsgEarthNet.uav[1] utilizationCountManeuversMission 12
scalar OsgEarthNet.uav[1] utilizationCountManeuversMaintenance 2
scalar OsgEarthNet.uav[1] utilizationCountChargeState 1
scalar OsgEarthNet.uav[1] utilizationCountOverdrawnAfterMission 0
scalar OsgEarthNet.uav[1] utilizationCountIdleState 2
scalar OsgEarthNet.uav[1] utilizationFail 0
scalar OsgEarthNet.uav[1] simulationTime 259200
scalar OsgEarthNet.uav[2] utilizationSecMission 39962.069622471
scalar OsgEarthNet.uav[2] utilizationSecMaintenance 17070.003334638
scalar OsgEarthNet.uav[2] utilizationSecCharge 196511.22068035
scalar OsgEarthNet.uav[2] utilizationSecIdle 5656.705362542
scalar OsgEarthNet.uav[2] utilizationEnergyMission 193473.82756424
scalar OsgEarthNet.uav[2] utilizationEnergyMaintenance 77811.300144196
scalar OsgEarthNet.uav[2] utilizationEnergyCharge 266248.82745361
scalar OsgEarthNet.uav[2] utilizationEnergyOverdrawMission 0
scalar OsgEarthNet.uav[2] utilizationEnergyOverdrawMaintenance 0
scalar OsgEarthNet.uav[2] utilizationCountMissions 59
scalar OsgEarthNet.uav[2] utilizationCountManeuversMission 1203
scalar OsgEarthNet.uav[2] utilizationCountManeuversMaintenance 118
scalar OsgEarthNet.uav[2] utilizationCountChargeState 59
scalar OsgEarthNet.uav[2] utilizationCountOverdrawnAfterMission 0
scalar OsgEarthNet.uav[2] utilizationCountIdleState 22
scalar OsgEarthNet.uav[2] utilizationFail 0
scalar OsgEarthNet.uav[2] simulationTime 259200
scalar OsgEarthNet.uav[3] utilizationSecMission 460
scalar OsgEarthNet.uav[3] utilizationSecMaintenance 447.1303002674
scalar OsgEarthNet.uav[3] utilizationSecCharge 3390
scalar OsgEarthNet.uav[3] utilizationSecIdle 254902.86869973
scalar OsgEarthNet.uav[3] utilizationEnergyMission 2571.4321556091
scalar OsgEarthNet.uav[3] utilizationEnergyMaintenance 2065.4209098816
scalar OsgEarthNet.uav[3] utilizationEnergyCharge 4365.5102539062
scalar OsgEarthNet.uav[3] utilizationEnergyOverdrawMission 0
scalar OsgEarthNet.uav[3] utilizationEnergyOverdrawMaintenance 0
scalar OsgEarthNet.uav[3] utilizationCountMissions 1
scalar OsgEarthNet.uav[3] utilizationCountManeuversMission 23
scalar OsgEarthNet.uav[3] utilizationCountManeuversMaintenance 2
scalar OsgEarthNet.uav[3] utilizationCountChargeState 1
scalar OsgEarthNet.uav[3] utilizationCountOverdrawnAfterMission 0
scalar OsgEarthNet.uav[3] utilizationCountIdleState 2
scalar OsgEarthNet.uav[3] utilizationFail 0
scalar OsgEarthNet.uav[3] simulationTime 259200
scalar OsgEarthNet.uav[4] utilizationSecMission 20038.873130968
scalar OsgEarthNet.uav[4] utilizationSecMaintenance 12360.155471689
scalar OsgEarthNet.uav[4] utilizationSecCharge 121250.00641167
scalar OsgEarthNet.uav[4] utilizationSecIdle 105550.96398567
scalar OsgEarthNet.uav[4] utilizationEnergyMission 97622.524211884
scalar OsgEarthNet.uav[4] utilizationEnergyMaintenance 57994.819782257
scalar OsgEarthNet.uav[4] utilizationEnergyCharge 153978.57080078
scalar OsgEarthNet.uav[4] utilizationEnergyOverdrawMission 0
scalar OsgEarthNet.uav[4] utilizationEnergyOverdrawMaintenance 0
scalar OsgEarthNet.uav[4] utilizationCountMissions 38
scalar OsgEarthNet.uav[4] utilizationCountManeuversMission 630
scalar OsgEarthNet.uav[4] utilizationCountManeuversMaintenance 76
scalar OsgEarthNet.uav[4] utilizationCountChargeState 38
scalar OsgEarthNet.uav[4] utilizationCountOverdrawnAfterMission 0
scalar OsgEarthNet.uav[4] utilizationCountIdleState 32
scalar OsgEarthNet.uav[4] utilizationFail 0
scalar OsgEarthNet.uav[4] simulationTime 259200
scalar OsgEarthNet.uav[5] utilizationSecMission 38952.122891431
scalar OsgEarthNet.uav[5] utilizationSecMaintenance 17556.676618976
scalar OsgEarthNet.uav[5] utilizationSecCharge 197827.31057711
scalar OsgEarthNet.uav[5] utilizationSecIdle 4863.8889124778
scalar OsgEarthNet.uav[5] utilizationEnergyMission 188477.7349472
scalar OsgEarthNet.uav[5] utilizationEnergyMaintenance 82040.198928833
scalar OsgEarthNet.uav[5] utilizationEnergyCharge 269969.37695312
scalar OsgEarthNet.uav[5] utilizationEnergyOverdrawMission 0
scalar OsgEarthNet.uav[5] utilizationEnergyOverdrawMaintenance 0
scalar OsgEarthNet.uav[5] utilizationCountMissions 59
scalar OsgEarthNet.uav[5] utilizationCountManeuversMission 1304
scalar OsgEarthNet.uav[5] utilizationCountManeuversMaintenance 118
scalar OsgEarthNet.uav[5] utilizationCountChargeState 59
scalar OsgEarthNet.uav[5] utilizationCountOverdrawnAfterMission 0
scalar OsgEarthNet.uav[5] utilizationCountIdleState 21
scalar OsgEarthNet.uav[5] utilizationFail 0
scalar OsgEarthNet.uav[5] simulationTime 259200
scalar OsgEarthNet.uav[6] utilizationSecMission 460
scalar OsgEarthNet.uav[6] utilizationSecMaintenance 447.1303002674
scalar OsgEarthNet.uav[6] utilizationSecCharge 3440
scalar OsgEarthNet.uav[6] utilizationSecIdle 254852.86869973
scalar OsgEarthNet.uav[6] utilizationEnergyMission 2446.1158943176
scalar OsgEarthNet.uav[6] utilizationEnergyMaintenance 2160.434337616
scalar OsgEarthNet.uav[6] utilizationEnergyCharge 4447.3720703125
scalar OsgEarthNet.uav[6] utilizationEnergyOverdrawMission 0
scalar OsgEarthNet.uav[6] utilizationEnergyOverdrawMaintenance 0
scalar OsgEarthNet.uav[6] utilizationCountMissions 1
scalar OsgEarthNet.uav[6] utilizationCountManeuversMission 23
scalar OsgEarthNet.uav[6] utilizationCountManeuversMaintenance 2
scalar OsgEarthNet.uav[6] utilizationCountChargeState 1
scalar OsgEarthNet.uav[6] utilizationCountOverdrawnAfterMission 0
scalar OsgEarthNet.uav[6] utilizationCountIdleState 2
scalar OsgEarthNet.uav[6] utilizationFail 0
scalar OsgEarthNet.uav[6] simulationTime 259200
scalar OsgEarthNet.uav[7] utilizationSecMission 10383.08738152
scalar OsgEarthNet.uav[7] utilizationSecMaintenance 6004.4791699578
scalar OsgEarthNet.uav[7] utilizationSecCharge 61940
scalar OsgEarthNet.uav[7] utilizationSecIdle 180872.43244852
scalar OsgEarthNet.uav[7] utilizationEnergyMission 49324.394515991
scalar OsgEarthNet.uav[7] utilizationEnergyMaintenance 28375.491744995
scalar OsgEarthNet.uav[7] utilizationEnergyCharge 77336.950195312
scalar OsgEarthNet.uav[7] utilizationEnergyOverdrawMission 0
scalar OsgEarthNet.uav[7] utilizationEnergyOverdrawMaintenance 0
scalar OsgEarthNet.uav[7] utilizationCountMissions 19
scalar OsgEarthNet.uav[7] utilizationCountManeuversMission 267
scalar OsgEarthNet.uav[7] utilizationCountManeuversMaintenance 38
scalar OsgEarthNet.uav[7] utilizationCountChargeState 19
scalar OsgEarthNet.uav[7] utilizationCountOverdrawnAfterMission 0
scalar OsgEarthNet.uav[7] utilizationCountIdleState 20
scalar OsgEarthNet.uav[7] utilizationFail 0
scalar OsgEarthNet.uav[7] simulationTime 259200
scalar OsgEarthNet.uav[8] utilizationSecMission 39983.064553714
scalar OsgEarthNet.uav[8] utilizationSecMaintenance 17536.048498913
scalar OsgEarthNet.uav[8] utilizationSecCharge 198018.88594737
scalar OsgEarthNet.uav[8] utilizationSecIdle 3662
scalar OsgEarthNet.uav[8] utilizationEnergyMission 193706.89613342
scalar OsgEarthNet.uav[8] utilizationEnergyMaintenance 80469.166110992
scalar OsgEarthNet.uav[8] utilizationEnergyCharge 270847.20275879
scalar OsgEarthNet.uav[8] utilizationEnergyOverdrawMission 0
scalar OsgEarthNet.uav[8] utilizationEnergyOverdrawMaintenance 0
scalar OsgEarthNet.uav[8] utilizationCountMissions 59
scalar OsgEarthNet.uav[8] utilizationCountManeuversMission 1181
scalar OsgEarthNet.uav[8] utilizationCountManeuversMaintenance 118
scalar OsgEarthNet.uav[8] utilizationCountChargeState 59
scalar OsgEarthNet.uav[8] utilizationCountOverdrawnAfterMission 0
scalar OsgEarthNet.uav[8] utilizationCountIdleState 23
scalar OsgEarthNet.uav[8] utilizationFail 0
scalar OsgEarthNet.uav[8] simulationTime 259200
scalar OsgEarthNet.uav[9] utilizationSecMission 760.62515258028
scalar OsgEarthNet.uav[9] utilizationSecMaintenance 202.91610409653
scalar OsgEarthNet.uav[9] utilizationSecCharge 3530
scalar OsgEarthNet.uav[9] utilizationSecIdle 254706.45774332
scalar OsgEarthNet.uav[9] utilizationEnergyMission 3614.6037979126
scalar OsgEarthNet.uav[9] utilizationEnergyMaintenance 993.76531219482
scalar OsgEarthNet.uav[9] utilizationEnergyCharge 4608.3720703125
scalar OsgEarthNet.uav[9] utilizationEnergyOverdrawMission 0
scalar OsgEarthNet.uav[9] utilizationEnergyOverdrawMaintenance 0
scalar OsgEarthNet.uav[9] utilizationCountMissions 1
scalar OsgEarthNet.uav[9] utilizationCountManeuversMission 12
scalar OsgEarthNet.uav[9] utilizationCountManeuversMaintenance 2
scalar OsgEarthNet.uav[9] utilizationCountChargeState 1
scalar OsgEarthNet.uav[9] utilizationCountOverdrawnAfterMission 0
scalar OsgEarthNet.uav[9] utilizationCountIdleState 2
scalar OsgEarthNet.uav[9] utilizationFail 0
scalar OsgEarthNet.uav[9] simulationTime 259200
scalar OsgEarthNet.uav[10] utilizationSecMission 4081.8754577408
scalar OsgEarthNet.uav[10] utilizationSecMaintenance 2368.9841112256
scalar OsgEarthNet.uav[10] utilizationSecCharge 24240
scalar OsgEarthNet.uav[10] utilizationSecIdle 228509.13943103
scalar OsgEarthNet.uav[10] utilizationEnergyMission 19437.816802979
scalar OsgEarthNet.uav[10] utilizationEnergyMaintenance 11124.614429474
scalar OsgEarthNet.uav[10] utilizationEnergyCharge 31132.623535156
scalar OsgEarthNet.uav[10] utilizationEnergyOverdrawMission 0
scalar OsgEarthNet.uav[10] utilizationEnergyOverdrawMaintenance 0
scalar OsgEarthNet.uav[10] utilizationCountMissions 7
scalar OsgEarthNet.uav[10] utilizationCountManeuversMission 126
scalar OsgEarthNet.uav[10] utilizationCountManeuversMaintenance 14
scalar OsgEarthNet.uav[10] utilizationCountChargeState 7
scalar OsgEarthNet.uav[10] utilizationCountOverdrawnAfterMission 0
scalar OsgEarthNet.uav[10] utilizationCountIdleState 8
scalar OsgEarthNet.uav[10] utilizationFail 0
scalar OsgEarthNet.uav[10] simulationTime 259200
scalar OsgEarthNet.uav[11] utilizationSecMission 13838.51324478
scalar OsgEarthNet.uav[11] utilizationSecMaintenance 8611.7553231475
scalar OsgEarthNet.uav[11] utilizationSecCharge 81357.730432073
scalar OsgEarthNet.uav[11] utilizationSecIdle 155392
scalar OsgEarthNet.uav[11] utilizationEnergyMission 67529.435920715
scalar OsgEarthNet.uav[11] utilizationEnergyMaintenance 40588.722118378
scalar OsgEarthNet.uav[11] utilizationEnergyCharge 105286.19482422
scalar OsgEarthNet.uav[11] utilizationEnergyOverdrawMission 0
scalar OsgEarthNet.uav[11] utilizationEnergyOverdrawMaintenance 0
scalar OsgEarthNet.uav[11] utilizationCountMissions 24
scalar OsgEarthNet.uav[11] utilizationCountManeuversMission 480
scalar OsgEarthNet.uav[11] utilizationCountManeuversMaintenance 48
scalar OsgEarthNet.uav[11] utilizationCountChargeState 24
scalar OsgEarthNet.uav[11] utilizationCountOverdrawnAfterMission 0
scalar OsgEarthNet.uav[11] utilizationCountIdleState 24
scalar OsgEarthNet.uav[11] utilizationFail 0
scalar OsgEarthNet.uav[11] simulationTime 259200
scalar OsgEarthNet.uav[12] utilizationSecMission 39915.276415817
scalar OsgEarthNet.uav[12] utilizationSecMaintenance 16819.646482616
scalar OsgEarthNet.uav[12] utilizationSecCharge 195563.07210157
scalar OsgEarthNet.uav[12] utilizationSecIdle 6902.004
scalar OsgEarthNet.uav[12] utilizationEnergyMission 194907.04540253
scalar OsgEarthNet.uav[12] utilizationEnergyMaintenance 77578.679969788
scalar OsgEarthNet.uav[12] utilizationEnergyCharge 266058.703125
scalar OsgEarthNet.uav[12] utilizationEnergyOverdrawMission 0
scalar OsgEarthNet.uav[12] utilizationEnergyOverdrawMaintenance 0
scalar OsgEarthNet.uav[12] utilizationCountMissions 58
scalar OsgEarthNet.uav[12] utilizationCountManeuversMission 1222
scalar OsgEarthNet.uav[12] utilizationCountManeuversMaintenance 116
scalar OsgEarthNet.uav[12] utilizationCountChargeState 58
scalar OsgEarthNet.uav[12] utilizationCountOverdrawnAfterMission 0
scalar OsgEarthNet.uav[12] utilizationCountIdleState 25
scalar OsgEarthNet.uav[12] utilizationFail 0
scalar OsgEarthNet.uav[12] simulationTime 259200
scalar OsgEarthNet.uav[13] utilizationSecMission 15014.738557694
scalar OsgEarthNet.uav[13] utilizationSecMaintenance 7880.8978857241
scalar OsgEarthNet.uav[13] utilizationSecCharge 82892.362556582
scalar OsgEarthNet.uav[13] utilizationSecIdle 153412
scalar OsgEarthNet.uav[13] utilizationEnergyMission 71402.777305603
scalar OsgEarthNet.uav[13] utilizationEnergyMaintenance 37428.029724121
scalar OsgEarthNet.uav[13] utilizationEnergyCharge 108030.62231445
scalar OsgEarthNet.uav[13] utilizationEnergyOverdrawMission 0
scalar OsgEarthNet.uav[13] utilizationEnergyOverdrawMaintenance 0
scalar OsgEarthNet.uav[13] utilizationCountMissions 24
scalar OsgEarthNet.uav[13] utilizationCountManeuversMission 431
scalar OsgEarthNet.uav[13] utilizationCountManeuversMaintenance 47
scalar OsgEarthNet.uav[13] utilizationCountChargeState 24
scalar OsgEarthNet.uav[13] utilizationCountOverdrawnAfterMission 0
scalar OsgEarthNet.uav[13] utilizationCountIdleState 24
scalar OsgEarthNet.uav[13] utilizationFail 0
scalar OsgEarthNet.uav[13] simulationTime 259200
scalar OsgEarthNet.uav[14] utilizationSecMission 10890.800784996
scalar OsgEarthNet.uav[14] utilizationSecMaintenance 7338.6959157427
scalar OsgEarthNet.uav[14] utilizationSecCharge 71940
scalar OsgEarthNet.uav[14] utilizationSecIdle 169030.50229926
scalar OsgEarthNet.uav[14] utilizationEnergyMission 51853.751739502
scalar OsgEarthNet.uav[14] utilizationEnergyMaintenance 34454.225482941
scalar OsgEarthNet.uav[14] utilizationEnergyCharge 88315.038085938
scalar OsgEarthNet.uav[14] utilizationEnergyOverdrawMission 0
scalar OsgEarthNet.uav[14] utilizationEnergyOverdrawMaintenance 0
scalar OsgEarthNet.uav[14] utilizationCountMissions 23
scalar OsgEarthNet.uav[14] utilizationCountManeuversMission 306
scalar OsgEarthNet.uav[14] utilizationCountManeuversMaintenance 46
scalar OsgEarthNet.uav[14] utilizationCountChargeState 23
scalar OsgEarthNet.uav[14] utilizationCountOverdrawnAfterMission 0
scalar OsgEarthNet.uav[14] utilizationCountIdleState 24
scalar OsgEarthNet.uav[14] utilizationFail 0
scalar OsgEarthNet.uav[14] simulationTime 259200
scalar OsgEarthNet.uav[15] utilizationSecMission 38200.990022674
scalar OsgEarthNet.uav[15] utilizationSecMaintenance 17480.129136824
scalar OsgEarthNet.uav[15] utilizationSecCharge 196445.35450927
scalar OsgEarthNet.uav[15] utilizationSecIdle 7073.5253312322
scalar OsgEarthNet.uav[15] utilizationEnergyMission 186716.54664993
scalar OsgEarthNet.uav[15] utilizationEnergyMaintenance 80706.585411072
scalar OsgEarthNet.uav[15] utilizationEnergyCharge 266963.51953125
scalar OsgEarthNet.uav[15] utilizationEnergyOverdrawMission 0
scalar OsgEarthNet.uav[15] utilizationEnergyOverdrawMaintenance 0
scalar OsgEarthNet.uav[15] utilizationCountMissions 58
scalar OsgEarthNet.uav[15] utilizationCountManeuversMission 1220
scalar OsgEarthNet.uav[15] utilizationCountManeuversMaintenance 116
scalar OsgEarthNet.uav[15] utilizationCountChargeState 58
scalar OsgEarthNet.uav[15] utilizationCountOverdrawnAfterMission 0
scalar OsgEarthNet.uav[15] utilizationCountIdleState 26
scalar OsgEarthNet.uav[15] utilizationFail 0
scalar OsgEarthNet.uav[15] simulationTime 259200
scalar OsgEarthNet.uav[16] utilizationSecMission 12284.376068062
scalar OsgEarthNet.uav[16] utilizationSecMaintenance 8073.5092676599
scalar OsgEarthNet.uav[16] utilizationSecCharge 77020
scalar OsgEarthNet.uav[16] utilizationSecIdle 161822.11366428
scalar OsgEarthNet.uav[16] utilizationEnergyMission 59764.513717651
scalar OsgEarthNet.uav[16] utilizationEnergyMaintenance 38361.141620636
scalar OsgEarthNet.uav[16] utilizationEnergyCharge 98997.576171875
scalar OsgEarthNet.uav[16] utilizationEnergyOverdrawMission 0
scalar OsgEarthNet.uav[16] utilizationEnergyOverdrawMaintenance 0
scalar OsgEarthNet.uav[16] utilizationCountMissions 22
scalar OsgEarthNet.uav[16] utilizationCountManeuversMission 432
scalar OsgEarthNet.uav[16] utilizationCountManeuversMaintenance 44
scalar OsgEarthNet.uav[16] utilizationCountChargeState 22
scalar OsgEarthNet.uav[16] utilizationCountOverdrawnAfterMission 0
scalar OsgEarthNet.uav[16] utilizationCountIdleState 23
scalar OsgEarthNet.uav[16] utilizationFail 0
scalar OsgEarthNet.uav[16] simulationTime 259200
scalar OsgEarthNet.uav[17] utilizationSecMission 14231.709655231
scalar OsgEarthNet.uav[17] utilizationSecMaintenance 10437.296762118
scalar OsgEarthNet.uav[17] utilizationSecCharge 93428.991075929
scalar OsgEarthNet.uav[17] utilizationSecIdle 141102.00150672
scalar OsgEarthNet.uav[17] utilizationEnergyMission 70640.900989532
scalar OsgEarthNet.uav[17] utilizationEnergyMaintenance 49561.934101105
scalar OsgEarthNet.uav[17] utilizationEnergyCharge 115767.331604
scalar OsgEarthNet.uav[17] utilizationEnergyOverdrawMission 0
scalar OsgEarthNet.uav[17] utilizationEnergyOverdrawMaintenance 0
scalar OsgEarthNet.uav[17] utilizationCountMissions 30
scalar OsgEarthNet.uav[17] utilizationCountManeuversMission 502
scalar OsgEarthNet.uav[17] utilizationCountManeuversMaintenance 60
scalar OsgEarthNet.uav[17] utilizationCountChargeState 30
scalar OsgEarthNet.uav[17] utilizationCountOverdrawnAfterMission 0
scalar OsgEarthNet.uav[17] utilizationCountIdleState 30
scalar OsgEarthNet.uav[17] utilizationFail 0
scalar OsgEarthNet.uav[17] simulationTime 259200
scalar OsgEarthNet.uav[18] utilizationSecMission 38970.740624504
scalar OsgEarthNet.uav[18] utilizationSecMaintenance 17666.619433644
scalar OsgEarthNet.uav[18] utilizationSecCharge 196148.5443035
scalar OsgEarthNet.uav[18] utilizationSecIdle 6414.0946383537
scalar OsgEarthNet.uav[18] utilizationEnergyMission 188711.92341232
scalar OsgEarthNet.uav[18] utilizationEnergyMaintenance 81242.127548218
scalar OsgEarthNet.uav[18] utilizationEnergyCharge 267743.33154297
scalar OsgEarthNet.uav[18] utilizationEnergyOverdrawMission 0
scalar OsgEarthNet.uav[18] utilizationEnergyOverdrawMaintenance 0
scalar OsgEarthNet.uav[18] utilizationCountMissions 59
scalar OsgEarthNet.uav[18] utilizationCountManeuversMission 1287
scalar OsgEarthNet.uav[18] utilizationCountManeuversMaintenance 118
scalar OsgEarthNet.uav[18] utilizationCountChargeState 59
scalar OsgEarthNet.uav[18] utilizationCountOverdrawnAfterMission 0
scalar OsgEarthNet.uav[18] utilizationCountIdleState 20
scalar OsgEarthNet.uav[18] utilizationFail 0
scalar OsgEarthNet.uav[18] simulationTime 259200
scalar OsgEarthNet.uav[19] utilizationSecMission 11844.376068062
scalar OsgEarthNet.uav[19] utilizationSecMaintenance 7790.7808642058
scalar OsgEarthNet.uav[19] utilizationSecCharge 73980
scalar OsgEarthNet.uav[19] utilizationSecIdle 165584.84206773
scalar OsgEarthNet.uav[19] utilizationEnergyMission 58055.113399506
scalar OsgEarthNet.uav[19] utilizationEnergyMaintenance 37480.702632904
scalar OsgEarthNet.uav[19] utilizationEnergyCharge 95556.809570312
scalar OsgEarthNet.uav[19] utilizationEnergyOverdrawMission 0
scalar OsgEarthNet.uav[19] utilizationEnergyOverdrawMaintenance 0
scalar OsgEarthNet.uav[19] utilizationCountMissions 21
scalar OsgEarthNet.uav[19] utilizationCountManeuversMission 410
scalar OsgEarthNet.uav[19] utilizationCountManeuversMaintenance 42
scalar OsgEarthNet.uav[19] utilizationCountChargeState 21
scalar OsgEarthNet.uav[19] utilizationCountOverdrawnAfterMission 0
scalar OsgEarthNet.uav[19] utilizationCountIdleState 22
scalar OsgEarthNet.uav[19] utilizationFail 0
scalar OsgEarthNet.uav[19] simulationTime 259200
scalar OsgEarthNet.uav[20] utilizationSecMission 18268.752136124
scalar OsgEarthNet.uav[20] utilizationSecMaintenance 9950.5804668908
scalar OsgEarthNet.uav[20] utilizationSecCharge 104410
scalar OsgEarthNet.uav[20] utilizationSecIdle 126570.66639699
scalar OsgEarthNet.uav[20] utilizationEnergyMission 86546.991874695
scalar OsgEarthNet.uav[20] utilizationEnergyMaintenance 47545.438087463
scalar OsgEarthNet.uav[20] utilizationEnergyCharge 133887.34667969
scalar OsgEarthNet.uav[20] utilizationEnergyOverdrawMission 0
scalar OsgEarthNet.uav[20] utilizationEnergyOverdrawMaintenance 0
scalar OsgEarthNet.uav[20] utilizationCountMissions 30
scalar OsgEarthNet.uav[20] utilizationCountManeuversMission 549
scalar OsgEarthNet.uav[20] utilizationCountManeuversMaintenance 60
scalar OsgEarthNet.uav[20] utilizationCountChargeState 30
scalar OsgEarthNet.uav[20] utilizationCountOverdrawnAfterMission 0
scalar OsgEarthNet.uav[20] utilizationCountIdleState 31
scalar OsgEarthNet.uav[20] utilizationFail 0
scalar OsgEarthNet.uav[20] simulationTime 259200
scalar OsgEarthNet.uav[21] utilizationSecMission 12571.296055505
scalar OsgEarthNet.uav[21] utilizationSecMaintenance 8399.2753335504
scalar OsgEarthNet.uav[21] utilizationSecCharge 80250
scalar OsgEarthNet.uav[21] utilizationSecIdle 157979.42761094
scalar OsgEarthNet.uav[21] utilizationEnergyMission 63391.746681213
scalar OsgEarthNet.uav[21] utilizationEnergyMaintenance 39544.78137207
scalar OsgEarthNet.uav[21] utilizationEnergyCharge 101398.88549805
scalar OsgEarthNet.uav[21] utilizationEnergyOverdrawMission 0
scalar OsgEarthNet.uav[21] utilizationEnergyOverdrawMaintenance 0
scalar OsgEarthNet.uav[21] utilizationCountMissions 24
scalar OsgEarthNet.uav[21] utilizationCountManeuversMission 465
scalar OsgEarthNet.uav[21] utilizationCountManeuversMaintenance 48
scalar OsgEarthNet.uav[21] utilizationCountChargeState 24
scalar OsgEarthNet.uav[21] utilizationCountOverdrawnAfterMission 0
scalar OsgEarthNet.uav[21] utilizationCountIdleState 25
scalar OsgEarthNet.uav[21] utilizationFail 0
scalar OsgEarthNet.uav[21] simulationTime 259200
scalar OsgEarthNet.uav[22] utilizationSecMission 40142.778121668
scalar OsgEarthNet.uav[22] utilizationSecMaintenance 16753.250425069
scalar OsgEarthNet.uav[22] utilizationSecCharge 197300
scalar OsgEarthNet.uav[22] utilizationSecIdle 5003.9704532633
scalar OsgEarthNet.uav[22] utilizationEnergyMission 193408.09241486
scalar OsgEarthNet.uav[22] utilizationEnergyMaintenance 76178.847297669
scalar OsgEarthNet.uav[22] utilizationEnergyCharge 268719.72558594
scalar OsgEarthNet.uav[22] utilizationEnergyOverdrawMission 0
scalar OsgEarthNet.uav[22] utilizationEnergyOverdrawMaintenance 0
scalar OsgEarthNet.uav[22] utilizationCountMissions 58
scalar OsgEarthNet.uav[22] utilizationCountManeuversMission 1202
scalar OsgEarthNet.uav[22] utilizationCountManeuversMaintenance 116
scalar OsgEarthNet.uav[22] utilizationCountChargeState 58
scalar OsgEarthNet.uav[22] utilizationCountOverdrawnAfterMission 0
scalar OsgEarthNet.uav[22] utilizationCountIdleState 22
scalar OsgEarthNet.uav[22] utilizationFail 0
scalar OsgEarthNet.uav[22] simulationTime 259200
scalar OsgEarthNet.uav[23] utilizationSecMission 14026.876678383
scalar OsgEarthNet.uav[23] utilizationSecMaintenance 7766.0608935635
scalar OsgEarthNet.uav[23] utilizationSecCharge 77554.921614909
scalar OsgEarthNet.uav[23] utilizationSecIdle 159852.13981314
scalar OsgEarthNet.uav[23] utilizationEnergyMission 67701.981243134
scalar OsgEarthNet.uav[23] utilizationEnergyMaintenance 36366.184356689
scalar OsgEarthNet.uav[23] utilizationEnergyCharge 99970.492675781
scalar OsgEarthNet.uav[23] utilizationEnergyOverdrawMission 0
scalar OsgEarthNet.uav[23] utilizationEnergyOverdrawMaintenance 0
scalar OsgEarthNet.uav[23] utilizationCountMissions 23
scalar OsgEarthNet.uav[23] utilizationCountManeuversMission 415
scalar OsgEarthNet.uav[23] utilizationCountManeuversMaintenance 46
scalar OsgEarthNet.uav[23] utilizationCountChargeState 23
scalar OsgEarthNet.uav[23] utilizationCountOverdrawnAfterMission 0
scalar OsgEarthNet.uav[23] utilizationCountIdleState 23
scalar OsgEarthNet.uav[23] utilizationFail 0
scalar OsgEarthNet.uav[23] simulationTime 259200
scalar OsgEarthNet.uav[24] utilizationSecMission 16239.644279507
scalar OsgEarthNet.uav[24] utilizationSecMaintenance 10577.788029416
scalar OsgEarthNet.uav[24] utilizationSecCharge 104030
scalar OsgEarthNet.uav[24] utilizationSecIdle 128352.56669108
scalar OsgEarthNet.uav[24] utilizationEnergyMission 78579.976886749
scalar OsgEarthNet.uav[24] utilizationEnergyMaintenance 50203.966583252
scalar OsgEarthNet.uav[24] utilizationEnergyCharge 129534.37255859
scalar OsgEarthNet.uav[24] utilizationEnergyOverdrawMission 0
scalar OsgEarthNet.uav[24] utilizationEnergyOverdrawMaintenance 0
scalar OsgEarthNet.uav[24] utilizationCountMissions 32
scalar OsgEarthNet.uav[24] utilizationCountManeuversMission 507
scalar OsgEarthNet.uav[24] utilizationCountManeuversMaintenance 64
scalar OsgEarthNet.uav[24] utilizationCountChargeState 32
scalar OsgEarthNet.uav[24] utilizationCountOverdrawnAfterMission 0
scalar OsgEarthNet.uav[24] utilizationCountIdleState 33
scalar OsgEarthNet.uav[24] utilizationFail 0
scalar OsgEarthNet.uav[24] simulationTime 259200
scalar OsgEarthNet.uav[25] utilizationSecMission 38930.999815299
scalar OsgEarthNet.uav[25] utilizationSecMaintenance 17421.90480473
scalar OsgEarthNet.uav[25] utilizationSecCharge 194686.39393833
scalar OsgEarthNet.uav[25] utilizationSecIdle 8160.7004416429
scalar OsgEarthNet.uav[25] utilizationEnergyMission 185790.08122253
scalar OsgEarthNet.uav[25] utilizationEnergyMaintenance 80779.34393692
scalar OsgEarthNet.uav[25] utilizationEnergyCharge 264835.72949219
scalar OsgEarthNet.uav[25] utilizationEnergyOverdrawMission 0
scalar OsgEarthNet.uav[25] utilizationEnergyOverdrawMaintenance 0
scalar OsgEarthNet.uav[25] utilizationCountMissions 58
scalar OsgEarthNet.uav[25] utilizationCountManeuversMission 1100
scalar OsgEarthNet.uav[25] utilizationCountManeuversMaintenance 116
scalar OsgEarthNet.uav[25] utilizationCountChargeState 58
scalar OsgEarthNet.uav[25] utilizationCountOverdrawnAfterMission 0
scalar OsgEarthNet.uav[25] utilizationCountIdleState 26
scalar OsgEarthNet.uav[25] utilizationFail 0
scalar OsgEarthNet.uav[25] simulationTime 259200
scalar OsgEarthNet.uav[26] utilizationSecMission 11464.376068062
scalar OsgEarthNet.uav[26] utilizationSecMaintenance 7255.9818153871
scalar OsgEarthNet.uav[26] utilizationSecCharge 69670
scalar OsgEarthNet.uav[26] utilizationSecIdle 170809.64111655
scalar OsgEarthNet.uav[26] utilizationEnergyMission 54847.910194397
scalar OsgEarthNet.uav[26] utilizationEnergyMaintenance 34057.719406128
scalar OsgEarthNet.uav[26] utilizationEnergyCharge 89163.154296875
scalar OsgEarthNet.uav[26] utilizationEnergyOverdrawMission 0
scalar OsgEarthNet.uav[26] utilizationEnergyOverdrawMaintenance 0
scalar OsgEarthNet.uav[26] utilizationCountMissions 20
scalar OsgEarthNet.uav[26] utilizationCountManeuversMission 391
scalar OsgEarthNet.uav[26] utilizationCountManeuversMaintenance 40
scalar OsgEarthNet.uav[26] utilizationCountChargeState 20
scalar OsgEarthNet.uav[26] utilizationCountOverdrawnAfterMission 0
scalar OsgEarthNet.uav[26] utilizationCountIdleState 21
scalar OsgEarthNet.uav[26] utilizationFail 0
scalar OsgEarthNet.uav[26] simulationTime 259200
scalar OsgEarthNet.uav[27] utilizationSecMission 14903.500981245
scalar OsgEarthNet.uav[27] utilizationSecMaintenance 10063.286763966
scalar OsgEarthNet.uav[27] utilizationSecCharge 97390
scalar OsgEarthNet.uav[27] utilizationSecIdle 136843.21125479
scalar OsgEarthNet.uav[27] utilizationEnergyMission 72200.188697815
scalar OsgEarthNet.uav[27] utilizationEnergyMaintenance 47919.820392609
scalar OsgEarthNet.uav[27] utilizationEnergyCharge 119445.00585938
scalar OsgEarthNet.uav[27] utilizationEnergyOverdrawMission 0
scalar OsgEarthNet.uav[27] utilizationEnergyOverdrawMaintenance 0
scalar OsgEarthNet.uav[27] utilizationCountMissions 31
scalar OsgEarthNet.uav[27] utilizationCountManeuversMission 447
scalar OsgEarthNet.uav[27] utilizationCountManeuversMaintenance 62
scalar OsgEarthNet.uav[27] utilizationCountChargeState 31
scalar OsgEarthNet.uav[27] utilizationCountOverdrawnAfterMission 0
scalar OsgEarthNet.uav[27] utilizationCountIdleState 32
scalar OsgEarthNet.uav[27] utilizationFail 0
scalar OsgEarthNet.uav[27] simulationTime 259200
scalar OsgEarthNet.uav[28] utilizationSecMission 39127.023428451
scalar OsgEarthNet.uav[28] utilizationSecMaintenance 17389.292384947
scalar OsgEarthNet.uav[28] utilizationSecCharge 196840
scalar OsgEarthNet.uav[28] utilizationSecIdle 5843.683186602
scalar OsgEarthNet.uav[28] utilizationEnergyMission 187317.25729037
scalar OsgEarthNet.uav[28] utilizationEnergyMaintenance 80298.193027496
scalar OsgEarthNet.uav[28] utilizationEnergyCharge 266616.61328125
scalar OsgEarthNet.uav[28] utilizationEnergyOverdrawMission 0
scalar OsgEarthNet.uav[28] utilizationEnergyOverdrawMaintenance 0
scalar OsgEarthNet.uav[28] utilizationCountMissions 58
scalar OsgEarthNet.uav[28] utilizationCountManeuversMission 1088
scalar OsgEarthNet.uav[28] utilizationCountManeuversMaintenance 117
scalar OsgEarthNet.uav[28] utilizationCountChargeState 58
scalar OsgEarthNet.uav[28] utilizationCountOverdrawnAfterMission 0
scalar OsgEarthNet.uav[28] utilizationCountIdleState 29
scalar OsgEarthNet.uav[28] utilizationFail 0
scalar OsgEarthNet.uav[28] simulationTime 259200
scalar OsgEarthNet.uav[29] utilizationSecMission 13326.251525803
scalar OsgEarthNet.uav[29] utilizationSecMaintenance 7475.4760409156
scalar OsgEarthNet.uav[29] utilizationSecCharge 77130
scalar OsgEarthNet.uav[29] utilizationSecIdle 161268.27143328
scalar OsgEarthNet.uav[29] utilizationEnergyMission 64728.100753784
scalar OsgEarthNet.uav[29] utilizationEnergyMaintenance 35627.277320862
scalar OsgEarthNet.uav[29] utilizationEnergyCharge 99332.623046875
scalar OsgEarthNet.uav[29] utilizationEnergyOverdrawMission 0
scalar OsgEarthNet.uav[29] utilizationEnergyOverdrawMaintenance 0
scalar OsgEarthNet.uav[29] utilizationCountMissions 22
scalar OsgEarthNet.uav[29] utilizationCountManeuversMission 406
scalar OsgEarthNet.uav[29] utilizationCountManeuversMaintenance 44
scalar OsgEarthNet.uav[29] utilizationCountChargeState 22
scalar OsgEarthNet.uav[29] utilizationCountOverdrawnAfterMission 0
scalar OsgEarthNet.uav[29] utilizationCountIdleState 23
scalar OsgEarthNet.uav[29] utilizationFail 0
scalar OsgEarthNet.uav[29] simulationTime 259200
scalar OsgEarthNet.uav[30] utilizationSecMission 11662.500610321
scalar OsgEarthNet.uav[30] utilizationSecMaintenance 8745.4913896789
scalar OsgEarthNet.uav[30] utilizationSecCharge 73550
scalar OsgEarthNet.uav[30] utilizationSecIdle 165242.007
scalar OsgEarthNet.uav[30] utilizationEnergyMission 56975.484786987
scalar OsgEarthNet.uav[30] utilizationEnergyMaintenance 42240.45764986
scalar OsgEarthNet.uav[30] utilizationEnergyCharge 94752.456542969
scalar OsgEarthNet.uav[30] utilizationEnergyOverdrawMission 0
scalar OsgEarthNet.uav[30] utilizationEnergyOverdrawMaintenance 0
scalar OsgEarthNet.uav[30] utilizationCountMissions 22
scalar OsgEarthNet.uav[30] utilizationCountManeuversMission 479
scalar OsgEarthNet.uav[30] utilizationCountManeuversMaintenance 44
scalar OsgEarthNet.uav[30] utilizationCountChargeState 21
scalar OsgEarthNet.uav[30] utilizationCountOverdrawnAfterMission 0
scalar OsgEarthNet.uav[30] utilizationCountIdleState 22
scalar OsgEarthNet.uav[30] utilizationFail 0
scalar OsgEarthNet.uav[30] simulationTime 259200
scalar OsgEarthNet.uav[31] utilizationSecMission 18389.939286618
scalar OsgEarthNet.uav[31] utilizationSecMaintenance 13315.447823866
scalar OsgEarthNet.uav[31] utilizationSecCharge 120150
scalar OsgEarthNet.uav[31] utilizationSecIdle 107344.61188952
scalar OsgEarthNet.uav[31] utilizationEnergyMission 89914.95506504
scalar OsgEarthNet.uav[31] utilizationEnergyMaintenance 63621.564796448
scalar OsgEarthNet.uav[31] utilizationEnergyCharge 149953.46679688
scalar OsgEarthNet.uav[31] utilizationEnergyOverdrawMission 0
scalar OsgEarthNet.uav[31] utilizationEnergyOverdrawMaintenance 0
scalar OsgEarthNet.uav[31] utilizationCountMissions 37
scalar OsgEarthNet.uav[31] utilizationCountManeuversMission 630
scalar OsgEarthNet.uav[31] utilizationCountManeuversMaintenance 75
scalar OsgEarthNet.uav[31] utilizationCountChargeState 37
scalar OsgEarthNet.uav[31] utilizationCountOverdrawnAfterMission 0
scalar OsgEarthNet.uav[31] utilizationCountIdleState 38
scalar OsgEarthNet.uav[31] utilizationFail 0
scalar OsgEarthNet.uav[31] simulationTime 259200
scalar OsgEarthNet.uav[32] utilizationSecMission 40473.066503242
scalar OsgEarthNet.uav[32] utilizationSecMaintenance 16329.672570816
scalar OsgEarthNet.uav[32] utilizationSecCharge 196494.55725822
scalar OsgEarthNet.uav[32] utilizationSecIdle 5902.7026677176
scalar OsgEarthNet.uav[32] utilizationEnergyMission 193495.78556442
scalar OsgEarthNet.uav[32] utilizationEnergyMaintenance 73997.495262146
scalar OsgEarthNet.uav[32] utilizationEnergyCharge 268330.35375977
scalar OsgEarthNet.uav[32] utilizationEnergyOverdrawMission 0
scalar OsgEarthNet.uav[32] utilizationEnergyOverdrawMaintenance 0
scalar OsgEarthNet.uav[32] utilizationCountMissions 58
scalar OsgEarthNet.uav[32] utilizationCountManeuversMission 1158
scalar OsgEarthNet.uav[32] utilizationCountManeuversMaintenance 116
scalar OsgEarthNet.uav[32] utilizationCountChargeState 58
scalar OsgEarthNet.uav[32] utilizationCountOverdrawnAfterMission 0
scalar OsgEarthNet.uav[32] utilizationCountIdleState 27
scalar OsgEarthNet.uav[32] utilizationFail 0
scalar OsgEarthNet.uav[32] simulationTime 259200
scalar OsgEarthNet.uav[33] utilizationSecMission 17397.243792213
scalar OsgEarthNet.uav[33] utilizationSecMaintenance 10754.265465982
scalar OsgEarthNet.uav[33] utilizationSecCharge 104916.4817418
scalar OsgEarthNet.uav[33] utilizationSecIdle 126132.008
scalar OsgEarthNet.uav[33] utilizationEnergyMission 83493.160568237
scalar OsgEarthNet.uav[33] utilizationEnergyMaintenance 50921.327827453
scalar OsgEarthNet.uav[33] utilizationEnergyCharge 135326.94775391
scalar OsgEarthNet.uav[33] utilizationEnergyOverdrawMission 0
scalar OsgEarthNet.uav[33] utilizationEnergyOverdrawMaintenance 0
scalar OsgEarthNet.uav[33] utilizationCountMissions 30
scalar OsgEarthNet.uav[33] utilizationCountManeuversMission 562
scalar OsgEarthNet.uav[33] utilizationCountManeuversMaintenance 60
scalar OsgEarthNet.uav[33] utilizationCountChargeState 30
scalar OsgEarthNet.uav[33] utilizationCountOverdrawnAfterMission 0
scalar OsgEarthNet.uav[33] utilizationCountIdleState 30
scalar OsgEarthNet.uav[33] utilizationFail 0
scalar OsgEarthNet.uav[33] simulationTime 259200
scalar OsgEarthNet.uav[34] utilizationSecMission 20651.626344361
scalar OsgEarthNet.uav[34] utilizationSecMaintenance 13294.817867879
scalar OsgEarthNet.uav[34] utilizationSecCharge 131911.55478776
scalar OsgEarthNet.uav[34] utilizationSecIdle 93342
scalar OsgEarthNet.uav[34] utilizationEnergyMission 100776.0637207
scalar OsgEarthNet.uav[34] utilizationEnergyMaintenance 62994.691692352
scalar OsgEarthNet.uav[34] utilizationEnergyCharge 163749.34619141
scalar OsgEarthNet.uav[34] utilizationEnergyOverdrawMission 0
scalar OsgEarthNet.uav[34] utilizationEnergyOverdrawMaintenance 0
scalar OsgEarthNet.uav[34] utilizationCountMissions 41
scalar OsgEarthNet.uav[34] utilizationCountManeuversMission 613
scalar OsgEarthNet.uav[34] utilizationCountManeuversMaintenance 81
scalar OsgEarthNet.uav[34] utilizationCountChargeState 41
scalar OsgEarthNet.uav[34] utilizationCountOverdrawnAfterMission 0
scalar OsgEarthNet.uav[34] utilizationCountIdleState 41
scalar OsgEarthNet.uav[34] utilizationFail 0
scalar OsgEarthNet.uav[34] simulationTime 259200
scalar OsgEarthNet.uav[35] utilizationSecMission 39771.476905461
scalar OsgEarthNet.uav[35] utilizationSecMaintenance 16351.782645688
scalar OsgEarthNet.uav[35] utilizationSecCharge 194594.73244885
scalar OsgEarthNet.uav[35] utilizationSecIdle 8482.007
scalar OsgEarthNet.uav[35] utilizationEnergyMission 191889.32667923
scalar OsgEarthNet.uav[35] utilizationEnergyMaintenance 74741.640300751
scalar OsgEarthNet.uav[35] utilizationEnergyCharge 264103.94238281
scalar OsgEarthNet.uav[35] utilizationEnergyOverdrawMission 0
scalar OsgEarthNet.uav[35] utilizationEnergyOverdrawMaintenance 0
scalar OsgEarthNet.uav[35] utilizationCountMissions 57
scalar OsgEarthNet.uav[35] utilizationCountManeuversMission 1043
scalar OsgEarthNet.uav[35] utilizationCountManeuversMaintenance 114
scalar OsgEarthNet.uav[35] utilizationCountChargeState 57
scalar OsgEarthNet.uav[35] utilizationCountOverdrawnAfterMission 0
scalar OsgEarthNet.uav[35] utilizationCountIdleState 32
scalar OsgEarthNet.uav[35] utilizationFail 0
scalar OsgEarthNet.uav[35] simulationTime 259200
scalar OsgEarthNet.uav[36] utilizationSecMission 15408.752136124
scalar OsgEarthNet.uav[36] utilizationSecMaintenance 7450.7560702733
scalar OsgEarthNet.uav[36] utilizationSecCharge 82282.089458512
scalar OsgEarthNet.uav[36] utilizationSecIdle 154058.40133509
scalar OsgEarthNet.uav[36] utilizationEnergyMission 74103.244277954
scalar OsgEarthNet.uav[36] utilizationEnergyMaintenance 35305.538829803
scalar OsgEarthNet.uav[36] utilizationEnergyCharge 106620.00952148
scalar OsgEarthNet.uav[36] utilizationEnergyOverdrawMission 0
scalar OsgEarthNet.uav[36] utilizationEnergyOverdrawMaintenance 0
scalar OsgEarthNet.uav[36] utilizationCountMissions 24
scalar OsgEarthNet.uav[36] utilizationCountManeuversMission 406
scalar OsgEarthNet.uav[36] utilizationCountManeuversMaintenance 48
scalar OsgEarthNet.uav[36] utilizationCountChargeState 24
scalar OsgEarthNet.uav[36] utilizationCountOverdrawnAfterMission 0
scalar OsgEarthNet.uav[36] utilizationCountIdleState 24
scalar OsgEarthNet.uav[36] utilizationFail 0
scalar OsgEarthNet.uav[36] simulationTime 259200
scalar OsgEarthNet.uav[37] utilizationSecMission 19676.489648141
scalar OsgEarthNet.uav[37] utilizationSecMaintenance 13000.662871335
scalar OsgEarthNet.uav[37] utilizationSecCharge 124830
scalar OsgEarthNet.uav[37] utilizationSecIdle 101692.84648052
scalar OsgEarthNet.uav[37] utilizationEnergyMission 97180.721179962
scalar OsgEarthNet.uav[37] utilizationEnergyMaintenance 62014.73418808
scalar OsgEarthNet.uav[37] utilizationEnergyCharge 157885.81933594
scalar OsgEarthNet.uav[37] utilizationEnergyOverdrawMission 0
scalar OsgEarthNet.uav[37] utilizationEnergyOverdrawMaintenance 0
scalar OsgEarthNet.uav[37] utilizationCountMissions 37
scalar OsgEarthNet.uav[37] utilizationCountManeuversMission 724
scalar OsgEarthNet.uav[37] utilizationCountManeuversMaintenance 74
scalar OsgEarthNet.uav[37] utilizationCountChargeState 37
scalar OsgEarthNet.uav[37] utilizationCountOverdrawnAfterMission 0
scalar OsgEarthNet.uav[37] utilizationCountIdleState 38
scalar OsgEarthNet.uav[37] utilizationFail 0
scalar OsgEarthNet.uav[37] simulationTime 259200
scalar OsgEarthNet.uav[38] utilizationSecMission 40559.524187155
scalar OsgEarthNet.uav[38] utilizationSecMaintenance 16293.940112194
scalar OsgEarthNet.uav[38] utilizationSecCharge 196680.18447983
scalar OsgEarthNet.uav[38] utilizationSecIdle 5666.3502208215
scalar OsgEarthNet.uav[38] utilizationEnergyMission 195349.10764313
scalar OsgEarthNet.uav[38] utilizationEnergyMaintenance 73611.007835388
scalar OsgEarthNet.uav[38] utilizationEnergyCharge 266974.73193359
scalar OsgEarthNet.uav[38] utilizationEnergyOverdrawMission 0
scalar OsgEarthNet.uav[38] utilizationEnergyOverdrawMaintenance 0
scalar OsgEarthNet.uav[38] utilizationCountMissions 58
scalar OsgEarthNet.uav[38] utilizationCountManeuversMission 1120
scalar OsgEarthNet.uav[38] utilizationCountManeuversMaintenance 116
scalar OsgEarthNet.uav[38] utilizationCountChargeState 58
scalar OsgEarthNet.uav[38] utilizationCountOverdrawnAfterMission 0
scalar OsgEarthNet.uav[38] utilizationCountIdleState 27
scalar OsgEarthNet.uav[38] utilizationFail 0
scalar OsgEarthNet.uav[38] simulationTime 259200
scalar OsgEarthNet.uav[39] utilizationSecMission 15357.868944793
scalar OsgEarthNet.uav[39] utilizationSecMaintenance 8098.1579916251
scalar OsgEarthNet.uav[39] utilizationSecCharge 87670
scalar OsgEarthNet.uav[39] utilizationSecIdle 148073.97206358
scalar OsgEarthNet.uav[39] utilizationEnergyMission 74415.515350342
scalar OsgEarthNet.uav[39] utilizationEnergyMaintenance 38383.696250915
scalar OsgEarthNet.uav[39] utilizationEnergyCharge 112790.02539062
scalar OsgEarthNet.uav[39] utilizationEnergyOverdrawMission 0
scalar OsgEarthNet.uav[39] utilizationEnergyOverdrawMaintenance 0
scalar OsgEarthNet.uav[39] utilizationCountMissions 25
scalar OsgEarthNet.uav[39] utilizationCountManeuversMission 434
scalar OsgEarthNet.uav[39] utilizationCountManeuversMaintenance 50
scalar OsgEarthNet.uav[39] utilizationCountChargeState 25
scalar OsgEarthNet.uav[39] utilizationCountOverdrawnAfterMission 0
scalar OsgEarthNet.uav[39] utilizationCountIdleState 26
scalar OsgEarthNet.uav[39] utilizationFail 0
scalar OsgEarthNet.uav[39] simulationTime 259200
scalar OsgEarthNet.uav[40] utilizationSecMission 15765.626373223
scalar OsgEarthNet.uav[40] utilizationSecMaintenance 10326.944596758
scalar OsgEarthNet.uav[40] utilizationSecCharge 98175.42203002
scalar OsgEarthNet.uav[40] utilizationSecIdle 134932.006
scalar OsgEarthNet.uav[40] utilizationEnergyMission 78476.342140198
scalar OsgEarthNet.uav[40] utilizationEnergyMaintenance 49267.675643921
scalar OsgEarthNet.uav[40] utilizationEnergyCharge 126835.51416016
scalar OsgEarthNet.uav[40] utilizationEnergyOverdrawMission 0
scalar OsgEarthNet.uav[40] utilizationEnergyOverdrawMaintenance 0
scalar OsgEarthNet.uav[40] utilizationCountMissions 28
scalar OsgEarthNet.uav[40] utilizationCountManeuversMission 554
scalar OsgEarthNet.uav[40] utilizationCountManeuversMaintenance 56
scalar OsgEarthNet.uav[40] utilizationCountChargeState 28
scalar OsgEarthNet.uav[40] utilizationCountOverdrawnAfterMission 0
scalar OsgEarthNet.uav[40] utilizationCountIdleState 28
scalar OsgEarthNet.uav[40] utilizationFail 0
scalar OsgEarthNet.uav[40] simulationTime 259200
scalar OsgEarthNet.uav[41] utilizationSecMission 18665.318721715
scalar OsgEarthNet.uav[41] utilizationSecMaintenance 14389.158678281
scalar OsgEarthNet.uav[41] utilizationSecCharge 131710
scalar OsgEarthNet.uav[41] utilizationSecIdle 94435.521600005
scalar OsgEarthNet.uav[41] utilizationEnergyMission 94092.622688293
scalar OsgEarthNet.uav[41] utilizationEnergyMaintenance 68000.569633484
scalar OsgEarthNet.uav[41] utilizationEnergyCharge 161369.7734375
scalar OsgEarthNet.uav[41] utilizationEnergyOverdrawMission 0
scalar OsgEarthNet.uav[41] utilizationEnergyOverdrawMaintenance 0
scalar OsgEarthNet.uav[41] utilizationCountMissions 42
scalar OsgEarthNet.uav[41] utilizationCountManeuversMission 693
scalar OsgEarthNet.uav[41] utilizationCountManeuversMaintenance 84
scalar OsgEarthNet.uav[41] utilizationCountChargeState 42
scalar OsgEarthNet.uav[41] utilizationCountOverdrawnAfterMission 0
scalar OsgEarthNet.uav[41] utilizationCountIdleState 43
scalar OsgEarthNet.uav[41] utilizationFail 0
scalar OsgEarthNet.uav[41] simulationTime 259200
scalar OsgEarthNet.uav[42] utilizationSecMission 39735.553248227
scalar OsgEarthNet.uav[42] utilizationSecMaintenance 17333.885114622
scalar OsgEarthNet.uav[42] utilizationSecCharge 197991.34102324
scalar OsgEarthNet.uav[42] utilizationSecIdle 4139.2196139157
scalar OsgEarthNet.uav[42] utilizationEnergyMission 193941.04614639
scalar OsgEarthNet.uav[42] utilizationEnergyMaintenance 79688.496799469
scalar OsgEarthNet.uav[42] utilizationEnergyCharge 270843.26025391
scalar OsgEarthNet.uav[42] utilizationEnergyOverdrawMission 0
scalar OsgEarthNet.uav[42] utilizationEnergyOverdrawMaintenance 0
scalar OsgEarthNet.uav[42] utilizationCountMissions 59
scalar OsgEarthNet.uav[42] utilizationCountManeuversMission 1337
scalar OsgEarthNet.uav[42] utilizationCountManeuversMaintenance 118
scalar OsgEarthNet.uav[42] utilizationCountChargeState 59
scalar OsgEarthNet.uav[42] utilizationCountOverdrawnAfterMission 0
scalar OsgEarthNet.uav[42] utilizationCountIdleState 22
scalar OsgEarthNet.uav[42] utilizationFail 0
scalar OsgEarthNet.uav[42] simulationTime 259200
scalar OsgEarthNet.uav[43] utilizationSecMission 15252.870066174
scalar OsgEarthNet.uav[43] utilizationSecMaintenance 8562.4518333911
scalar OsgEarthNet.uav[43] utilizationSecCharge 86120.658830707
scalar OsgEarthNet.uav[43] utilizationSecIdle 149264.01826973
scalar OsgEarthNet.uav[43] utilizationEnergyMission 73757.877326965
scalar OsgEarthNet.uav[43] utilizationEnergyMaintenance 40494.787937164
scalar OsgEarthNet.uav[43] utilizationEnergyCharge 109831.18304443
scalar OsgEarthNet.uav[43] utilizationEnergyOverdrawMission 0
scalar OsgEarthNet.uav[43] utilizationEnergyOverdrawMaintenance 0
scalar OsgEarthNet.uav[43] utilizationCountMissions 26
scalar OsgEarthNet.uav[43] utilizationCountManeuversMission 426
scalar OsgEarthNet.uav[43] utilizationCountManeuversMaintenance 52
scalar OsgEarthNet.uav[43] utilizationCountChargeState 26
scalar OsgEarthNet.uav[43] utilizationCountOverdrawnAfterMission 0
scalar OsgEarthNet.uav[43] utilizationCountIdleState 26
scalar OsgEarthNet.uav[43] utilizationFail 0
scalar OsgEarthNet.uav[43] simulationTime 259200
scalar OsgEarthNet.uav[44] utilizationSecMission 20745.746742377
scalar OsgEarthNet.uav[44] utilizationSecMaintenance 13990.172617717
scalar OsgEarthNet.uav[44] utilizationSecCharge 134509.37394087
scalar OsgEarthNet.uav[44] utilizationSecIdle 89954.705699036
scalar OsgEarthNet.uav[44] utilizationEnergyMission 101866.919384
scalar OsgEarthNet.uav[44] utilizationEnergyMaintenance 66487.947483063
scalar OsgEarthNet.uav[44] utilizationEnergyCharge 168157.11376953
scalar OsgEarthNet.uav[44] utilizationEnergyOverdrawMission 0
scalar OsgEarthNet.uav[44] utilizationEnergyOverdrawMaintenance 0
scalar OsgEarthNet.uav[44] utilizationCountMissions 42
scalar OsgEarthNet.uav[44] utilizationCountManeuversMission 665
scalar OsgEarthNet.uav[44] utilizationCountManeuversMaintenance 84
scalar OsgEarthNet.uav[44] utilizationCountChargeState 42
scalar OsgEarthNet.uav[44] utilizationCountOverdrawnAfterMission 0
scalar OsgEarthNet.uav[44] utilizationCountIdleState 42
scalar OsgEarthNet.uav[44] utilizationFail 0
scalar OsgEarthNet.uav[44] simulationTime 259200
scalar OsgEarthNet.uav[45] utilizationSecMission 40624.617656666
scalar OsgEarthNet.uav[45] utilizationSecMaintenance 16303.381343334
scalar OsgEarthNet.uav[45] utilizationSecCharge 197830
scalar OsgEarthNet.uav[45] utilizationSecIdle 4442
scalar OsgEarthNet.uav[45] utilizationEnergyMission 197880.06645578
scalar OsgEarthNet.uav[45] utilizationEnergyMaintenance 75802.585441589
scalar OsgEarthNet.uav[45] utilizationEnergyCharge 269734.81542969
scalar OsgEarthNet.uav[45] utilizationEnergyOverdrawMission 0
scalar OsgEarthNet.uav[45] utilizationEnergyOverdrawMaintenance 0
scalar OsgEarthNet.uav[45] utilizationCountMissions 58
scalar OsgEarthNet.uav[45] utilizationCountManeuversMission 1242
scalar OsgEarthNet.uav[45] utilizationCountManeuversMaintenance 116
scalar OsgEarthNet.uav[45] utilizationCountChargeState 58
scalar OsgEarthNet.uav[45] utilizationCountOverdrawnAfterMission 0
scalar OsgEarthNet.uav[45] utilizationCountIdleState 27
scalar OsgEarthNet.uav[45] utilizationFail 0
scalar OsgEarthNet.uav[45] simulationTime 259200
scalar OsgEarthNet.uav[46] utilizationSecMission 13046.251525803
scalar OsgEarthNet.uav[46] utilizationSecMaintenance 7562.8433628847
scalar OsgEarthNet.uav[46] utilizationSecCharge 76810
scalar OsgEarthNet.uav[46] utilizationSecIdle 161780.90411131
scalar OsgEarthNet.uav[46] utilizationEnergyMission 62222.934936523
scalar OsgEarthNet.uav[46] utilizationEnergyMaintenance 35882.318031311
scalar OsgEarthNet.uav[46] utilizationEnergyCharge 98853.484375
scalar OsgEarthNet.uav[46] utilizationEnergyOverdrawMission 0
scalar OsgEarthNet.uav[46] utilizationEnergyOverdrawMaintenance 0
scalar OsgEarthNet.uav[46] utilizationCountMissions 22
scalar OsgEarthNet.uav[46] utilizationCountManeuversMission 392
scalar OsgEarthNet.uav[46] utilizationCountManeuversMaintenance 44
scalar OsgEarthNet.uav[46] utilizationCountChargeState 22
scalar OsgEarthNet.uav[46] utilizationCountOverdrawnAfterMission 0
scalar OsgEarthNet.uav[46] utilizationCountIdleState 23
scalar OsgEarthNet.uav[46] utilizationFail 0
scalar OsgEarthNet.uav[46] simulationTime 259200
scalar OsgEarthNet.uav[47] utilizationSecMission 18921.048420251
scalar OsgEarthNet.uav[47] utilizationSecMaintenance 13218.169828895
scalar OsgEarthNet.uav[47] utilizationSecCharge 120943.46466902
scalar OsgEarthNet.uav[47] utilizationSecIdle 106117.31608183
scalar OsgEarthNet.uav[47] utilizationEnergyMission 94994.307998657
scalar OsgEarthNet.uav[47] utilizationEnergyMaintenance 62782.233711243
scalar OsgEarthNet.uav[47] utilizationEnergyCharge 152833.5090332
scalar OsgEarthNet.uav[47] utilizationEnergyOverdrawMission 0
scalar OsgEarthNet.uav[47] utilizationEnergyOverdrawMaintenance 0
scalar OsgEarthNet.uav[47] utilizationCountMissions 37
scalar OsgEarthNet.uav[47] utilizationCountManeuversMission 745
scalar OsgEarthNet.uav[47] utilizationCountManeuversMaintenance 74
scalar OsgEarthNet.uav[47] utilizationCountChargeState 37
scalar OsgEarthNet.uav[47] utilizationCountOverdrawnAfterMission 0
scalar OsgEarthNet.uav[47] utilizationCountIdleState 37
scalar OsgEarthNet.uav[47] utilizationFail 0
scalar OsgEarthNet.uav[47] simulationTime 259200
scalar OsgEarthNet.uav[48] utilizationSecMission 40247.206786757
scalar OsgEarthNet.uav[48] utilizationSecMaintenance 16319.331170191
scalar OsgEarthNet.uav[48] utilizationSecCharge 194770
scalar OsgEarthNet.uav[48] utilizationSecIdle 7863.4610430521
scalar OsgEarthNet.uav[48] utilizationEnergyMission 193499.62346649
scalar OsgEarthNet.uav[48] utilizationEnergyMaintenance 74685.622654469
scalar OsgEarthNet.uav[48] utilizationEnergyCharge 265057.58984375
scalar OsgEarthNet.uav[48] utilizationEnergyOverdrawMission 0
scalar OsgEarthNet.uav[48] utilizationEnergyOverdrawMaintenance 0
scalar OsgEarthNet.uav[48] utilizationCountMissions 58
scalar OsgEarthNet.uav[48] utilizationCountManeuversMission 1177
scalar OsgEarthNet.uav[48] utilizationCountManeuversMaintenance 116
scalar OsgEarthNet.uav[48] utilizationCountChargeState 57
scalar OsgEarthNet.uav[48] utilizationCountOverdrawnAfterMission 0
scalar OsgEarthNet.uav[48] utilizationCountIdleState 25
scalar OsgEarthNet.uav[48] utilizationFail 0
scalar OsgEarthNet.uav[48] simulationTime 259200
scalar OsgEarthNet.uav[49] utilizationSecMission 13705.517298143
scalar OsgEarthNet.uav[49] utilizationSecMaintenance 8900.0138504949
scalar OsgEarthNet.uav[49] utilizationSecCharge 81872.454851362
scalar OsgEarthNet.uav[49] utilizationSecIdle 154722.013
scalar OsgEarthNet.uav[49] utilizationEnergyMission 66587.207122803
scalar OsgEarthNet.uav[49] utilizationEnergyMaintenance 41901.174987793
scalar OsgEarthNet.uav[49] utilizationEnergyCharge 105862.11791992
scalar OsgEarthNet.uav[49] utilizationEnergyOverdrawMission 0
scalar OsgEarthNet.uav[49] utilizationEnergyOverdrawMaintenance 0
scalar OsgEarthNet.uav[49] utilizationCountMissions 24
scalar OsgEarthNet.uav[49] utilizationCountManeuversMission 468
scalar OsgEarthNet.uav[49] utilizationCountManeuversMaintenance 48
scalar OsgEarthNet.uav[49] utilizationCountChargeState 24
scalar OsgEarthNet.uav[49] utilizationCountOverdrawnAfterMission 0
scalar OsgEarthNet.uav[49] utilizationCountIdleState 24
scalar OsgEarthNet.uav[49] utilizationFail 0
scalar OsgEarthNet.uav[49] simulationTime 259200
scalar OsgEarthNet.uav[50] utilizationSecMission 13063.750915482
scalar OsgEarthNet.uav[50] utilizationSecMaintenance 9484.6888834372
scalar OsgEarthNet.uav[50] utilizationSecCharge 84480
scalar OsgEarthNet.uav[50] utilizationSecIdle 152171.55920108
scalar OsgEarthNet.uav[50] utilizationEnergyMission 64682.733570099
scalar OsgEarthNet.uav[50] utilizationEnergyMaintenance 45124.741802215
scalar OsgEarthNet.uav[50] utilizationEnergyCharge 109023.51757812
scalar OsgEarthNet.uav[50] utilizationEnergyOverdrawMission 0
scalar OsgEarthNet.uav[50] utilizationEnergyOverdrawMaintenance 0
scalar OsgEarthNet.uav[50] utilizationCountMissions 24
scalar OsgEarthNet.uav[50] utilizationCountManeuversMission 497
scalar OsgEarthNet.uav[50] utilizationCountManeuversMaintenance 48
scalar OsgEarthNet.uav[50] utilizationCountChargeState 24
scalar OsgEarthNet.uav[50] utilizationCountOverdrawnAfterMission 0
scalar OsgEarthNet.uav[50] utilizationCountIdleState 25
scalar OsgEarthNet.uav[50] utilizationFail 0
scalar OsgEarthNet.uav[50] simulationTime 259200
scalar OsgEarthNet.uav[51] utilizationSecMission 19236.201177494
scalar OsgEarthNet.uav[51] utilizationSecMaintenance 12820.755647507
scalar OsgEarthNet.uav[51] utilizationSecCharge 124740
scalar OsgEarthNet.uav[51] utilizationSecIdle 102403.042175
scalar OsgEarthNet.uav[51] utilizationEnergyMission 91402.743553162
scalar OsgEarthNet.uav[51] utilizationEnergyMaintenance 60658.753387451
scalar OsgEarthNet.uav[51] utilizationEnergyCharge 154195.43701172
scalar OsgEarthNet.uav[51] utilizationEnergyOverdrawMission 0
scalar OsgEarthNet.uav[51] utilizationEnergyOverdrawMaintenance 0
scalar OsgEarthNet.uav[51] utilizationCountMissions 39
scalar OsgEarthNet.uav[51] utilizationCountManeuversMission 604
scalar OsgEarthNet.uav[51] utilizationCountManeuversMaintenance 78
scalar OsgEarthNet.uav[51] utilizationCountChargeState 39
scalar OsgEarthNet.uav[51] utilizationCountOverdrawnAfterMission 0
scalar OsgEarthNet.uav[51] utilizationCountIdleState 40
scalar OsgEarthNet.uav[51] utilizationFail 0
scalar OsgEarthNet.uav[51] simulationTime 259200
scalar OsgEarthNet.uav[52] utilizationSecMission 38500.482384182
scalar OsgEarthNet.uav[52] utilizationSecMaintenance 17885.358640999
scalar OsgEarthNet.uav[52] utilizationSecCharge 195882.15197482
scalar OsgEarthNet.uav[52] utilizationSecIdle 6932.006
scalar OsgEarthNet.uav[52] utilizationEnergyMission 187301.18902206
scalar OsgEarthNet.uav[52] utilizationEnergyMaintenance 83370.997318268
scalar OsgEarthNet.uav[52] utilizationEnergyCharge 268223.04211426
scalar OsgEarthNet.uav[52] utilizationEnergyOverdrawMission 0
scalar OsgEarthNet.uav[52] utilizationEnergyOverdrawMaintenance 0
scalar OsgEarthNet.uav[52] utilizationCountMissions 59
scalar OsgEarthNet.uav[52] utilizationCountManeuversMission 1236
scalar OsgEarthNet.uav[52] utilizationCountManeuversMaintenance 118
scalar OsgEarthNet.uav[52] utilizationCountChargeState 59
scalar OsgEarthNet.uav[52] utilizationCountOverdrawnAfterMission 0
scalar OsgEarthNet.uav[52] utilizationCountIdleState 20
scalar OsgEarthNet.uav[52] utilizationFail 0
scalar OsgEarthNet.uav[52] simulationTime 259200
scalar OsgEarthNet.uav[53] utilizationSecMission 18768.257796456
scalar OsgEarthNet.uav[53] utilizationSecMaintenance 12349.192085929
scalar OsgEarthNet.uav[53] utilizationSecCharge 117840
scalar OsgEarthNet.uav[53] utilizationSecIdle 110242.54911762
scalar OsgEarthNet.uav[53] utilizationEnergyMission 90203.209201813
scalar OsgEarthNet.uav[53] utilizationEnergyMaintenance 58934.158847809
scalar OsgEarthNet.uav[53] utilizationEnergyCharge 148719.10571289
scalar OsgEarthNet.uav[53] utilizationEnergyOverdrawMission 0
scalar OsgEarthNet.uav[53] utilizationEnergyOverdrawMaintenance 0
scalar OsgEarthNet.uav[53] utilizationCountMissions 35
scalar OsgEarthNet.uav[53] utilizationCountManeuversMission 663
scalar OsgEarthNet.uav[53] utilizationCountManeuversMaintenance 70
scalar OsgEarthNet.uav[53] utilizationCountChargeState 35
scalar OsgEarthNet.uav[53] utilizationCountOverdrawnAfterMission 0
scalar OsgEarthNet.uav[53] utilizationCountIdleState 36
scalar OsgEarthNet.uav[53] utilizationFail 0
scalar OsgEarthNet.uav[53] simulationTime 259200
scalar OsgEarthNet.uav[54] utilizationSecMission 19869.891914762
scalar OsgEarthNet.uav[54] utilizationSecMaintenance 13283.260924222
scalar OsgEarthNet.uav[54] utilizationSecCharge 126280
scalar OsgEarthNet.uav[54] utilizationSecIdle 99766.846161016
scalar OsgEarthNet.uav[54] utilizationEnergyMission 97837.161312103
scalar OsgEarthNet.uav[54] utilizationEnergyMaintenance 63641.050575256
scalar OsgEarthNet.uav[54] utilizationEnergyCharge 159012.45263672
scalar OsgEarthNet.uav[54] utilizationEnergyOverdrawMission 0
scalar OsgEarthNet.uav[54] utilizationEnergyOverdrawMaintenance 0
scalar OsgEarthNet.uav[54] utilizationCountMissions 38
scalar OsgEarthNet.uav[54] utilizationCountManeuversMission 726
scalar OsgEarthNet.uav[54] utilizationCountManeuversMaintenance 76
scalar OsgEarthNet.uav[54] utilizationCountChargeState 38
scalar OsgEarthNet.uav[54] utilizationCountOverdrawnAfterMission 0
scalar OsgEarthNet.uav[54] utilizationCountIdleState 39
scalar OsgEarthNet.uav[54] utilizationFail 0
scalar OsgEarthNet.uav[54] simulationTime 259200
scalar OsgEarthNet.uav[55] utilizationSecMission 40673.25090136
scalar OsgEarthNet.uav[55] utilizationSecMaintenance 16389.092347588
scalar OsgEarthNet.uav[55] utilizationSecCharge 197478.48064064
scalar OsgEarthNet.uav[55] utilizationSecIdle 4659.1751104107
scalar OsgEarthNet.uav[55] utilizationEnergyMission 192539.08859634
scalar OsgEarthNet.uav[55] utilizationEnergyMaintenance 74704.463779449
scalar OsgEarthNet.uav[55] utilizationEnergyCharge 269917.43164062
scalar OsgEarthNet.uav[55] utilizationEnergyOverdrawMission 0
scalar OsgEarthNet.uav[55] utilizationEnergyOverdrawMaintenance 0
scalar OsgEarthNet.uav[55] utilizationCountMissions 58
scalar OsgEarthNet.uav[55] utilizationCountManeuversMission 1129
scalar OsgEarthNet.uav[55] utilizationCountManeuversMaintenance 116
scalar OsgEarthNet.uav[55] utilizationCountChargeState 58
scalar OsgEarthNet.uav[55] utilizationCountOverdrawnAfterMission 0
scalar OsgEarthNet.uav[55] utilizationCountIdleState 25
scalar OsgEarthNet.uav[55] utilizationFail 0
scalar OsgEarthNet.uav[55] simulationTime 259200
scalar OsgEarthNet.uav[56] utilizationSecMission 14615.993487052
scalar OsgEarthNet.uav[56] utilizationSecMaintenance 9112.9651871296
scalar OsgEarthNet.uav[56] utilizationSecCharge 87800
scalar OsgEarthNet.uav[56] utilizationSecIdle 147671.04032582
scalar OsgEarthNet.uav[56] utilizationEnergyMission 71777.773517609
scalar OsgEarthNet.uav[56] utilizationEnergyMaintenance 43100.593822479
scalar OsgEarthNet.uav[56] utilizationEnergyCharge 113029.86962891
scalar OsgEarthNet.uav[56] utilizationEnergyOverdrawMission 0
scalar OsgEarthNet.uav[56] utilizationEnergyOverdrawMaintenance 0
scalar OsgEarthNet.uav[56] utilizationCountMissions 25
scalar OsgEarthNet.uav[56] utilizationCountManeuversMission 475
scalar OsgEarthNet.uav[56] utilizationCountManeuversMaintenance 50
scalar OsgEarthNet.uav[56] utilizationCountChargeState 25
scalar OsgEarthNet.uav[56] utilizationCountOverdrawnAfterMission 0
scalar OsgEarthNet.uav[56] utilizationCountIdleState 26
scalar OsgEarthNet.uav[56] utilizationFail 0
scalar OsgEarthNet.uav[56] simulationTime 259200
scalar OsgEarthNet.uav[57] utilizationSecMission 20784.404485109
scalar OsgEarthNet.uav[57] utilizationSecMaintenance 14178.184623541
scalar OsgEarthNet.uav[57] utilizationSecCharge 132610
scalar OsgEarthNet.uav[57] utilizationSecIdle 91627.40989135
scalar OsgEarthNet.uav[57] utilizationEnergyMission 100610.28947118
scalar OsgEarthNet.uav[57] utilizationEnergyMaintenance 67181.912986755
scalar OsgEarthNet.uav[57] utilizationEnergyCharge 164988.96386719
scalar OsgEarthNet.uav[57] utilizationEnergyOverdrawMission 0
scalar OsgEarthNet.uav[57] utilizationEnergyOverdrawMaintenance 0
scalar OsgEarthNet.uav[57] utilizationCountMissions 41
scalar OsgEarthNet.uav[57] utilizationCountManeuversMission 681
scalar OsgEarthNet.uav[57] utilizationCountManeuversMaintenance 83
scalar OsgEarthNet.uav[57] utilizationCountChargeState 41
scalar OsgEarthNet.uav[57] utilizationCountOverdrawnAfterMission 0
scalar OsgEarthNet.uav[57] utilizationCountIdleState 42
scalar OsgEarthNet.uav[57] utilizationFail 0
scalar OsgEarthNet.uav[57] simulationTime 259200
scalar OsgEarthNet.uav[58] utilizationSecMission 40118.743136261
scalar OsgEarthNet.uav[58] utilizationSecMaintenance 16555.84940839
scalar OsgEarthNet.uav[58] utilizationSecCharge 198197.95619132
scalar OsgEarthNet.uav[58] utilizationSecIdle 4327.4502640309
scalar OsgEarthNet.uav[58] utilizationEnergyMission 192971.14450836
scalar OsgEarthNet.uav[58] utilizationEnergyMaintenance 76037.526248932
scalar OsgEarthNet.uav[58] utilizationEnergyCharge 268936.66992188
scalar OsgEarthNet.uav[58] utilizationEnergyOverdrawMission 0
scalar OsgEarthNet.uav[58] utilizationEnergyOverdrawMaintenance 0
scalar OsgEarthNet.uav[58] utilizationCountMissions 58
scalar OsgEarthNet.uav[58] utilizationCountManeuversMission 1097
scalar OsgEarthNet.uav[58] utilizationCountManeuversMaintenance 116
scalar OsgEarthNet.uav[58] utilizationCountChargeState 58
scalar OsgEarthNet.uav[58] utilizationCountOverdrawnAfterMission 0
scalar OsgEarthNet.uav[58] utilizationCountIdleState 28
scalar OsgEarthNet.uav[58] utilizationFail 0
scalar OsgEarthNet.uav[58] simulationTime 259200
scalar OsgEarthNet.uav[59] utilizationSecMission 14526.251525803
scalar OsgEarthNet.uav[59] utilizationSecMaintenance 8730.4038994956
scalar OsgEarthNet.uav[59] utilizationSecCharge 85731.324574702
scalar OsgEarthNet.uav[59] utilizationSecIdle 150212.019
scalar OsgEarthNet.uav[59] utilizationEnergyMission 70361.341381073
scalar OsgEarthNet.uav[59] utilizationEnergyMaintenance 41856.135997772
scalar OsgEarthNet.uav[59] utilizationEnergyCharge 110897.10327148
scalar OsgEarthNet.uav[59] utilizationEnergyOverdrawMission 0
scalar OsgEarthNet.uav[59] utilizationEnergyOverdrawMaintenance 0
scalar OsgEarthNet.uav[59] utilizationCountMissions 25
scalar OsgEarthNet.uav[59] utilizationCountManeuversMission 466
scalar OsgEarthNet.uav[59] utilizationCountManeuversMaintenance 50
scalar OsgEarthNet.uav[59] utilizationCountChargeState 25
scalar OsgEarthNet.uav[59] utilizationCountOverdrawnAfterMission 0
scalar OsgEarthNet.uav[59] utilizationCountIdleState 25
scalar OsgEarthNet.uav[59] utilizationFail 0
scalar OsgEarthNet.uav[59] simulationTime 259200
scalar OsgEarthNet.uav[60] utilizationSecMission 13637.243792213
scalar OsgEarthNet.uav[60] utilizationSecMaintenance 7260.7462077872
scalar OsgEarthNet.uav[60] utilizationSecCharge 73810
scalar OsgEarthNet.uav[60] utilizationSecIdle 164492.009
scalar OsgEarthNet.uav[60] utilizationEnergyMission 64578.018508911
scalar OsgEarthNet.uav[60] utilizationEnergyMaintenance 34241.082334353
scalar OsgEarthNet.uav[60] utilizationEnergyCharge 95544.337890625
scalar OsgEarthNet.uav[60] utilizationEnergyOverdrawMission 0
scalar OsgEarthNet.uav[60] utilizationEnergyOverdrawMaintenance 0
scalar OsgEarthNet.uav[60] utilizationCountMissions 22
scalar OsgEarthNet.uav[60] utilizationCountManeuversMission 374
scalar OsgEarthNet.uav[60] utilizationCountManeuversMaintenance 44
scalar OsgEarthNet.uav[60] utilizationCountChargeState 21
scalar OsgEarthNet.uav[60] utilizationCountOverdrawnAfterMission 0
scalar OsgEarthNet.uav[60] utilizationCountIdleState 22
scalar OsgEarthNet.uav[60] utilizationFail 0
scalar OsgEarthNet.uav[60] simulationTime 259200
scalar OsgEarthNet.uav[61] utilizationSecMission 21039.644279507
scalar OsgEarthNet.uav[61] utilizationSecMaintenance 14137.178697256
scalar OsgEarthNet.uav[61] utilizationSecCharge 135170
scalar OsgEarthNet.uav[61] utilizationSecIdle 88853.176023236
scalar OsgEarthNet.uav[61] utilizationEnergyMission 103550.88132477
scalar OsgEarthNet.uav[61] utilizationEnergyMaintenance 67133.614635468
scalar OsgEarthNet.uav[61] utilizationEnergyCharge 169742.07788086
scalar OsgEarthNet.uav[61] utilizationEnergyOverdrawMission 0
scalar OsgEarthNet.uav[61] utilizationEnergyOverdrawMaintenance 0
scalar OsgEarthNet.uav[61] utilizationCountMissions 41
scalar OsgEarthNet.uav[61] utilizationCountManeuversMission 747
scalar OsgEarthNet.uav[61] utilizationCountManeuversMaintenance 82
scalar OsgEarthNet.uav[61] utilizationCountChargeState 41
scalar OsgEarthNet.uav[61] utilizationCountOverdrawnAfterMission 0
scalar OsgEarthNet.uav[61] utilizationCountIdleState 42
scalar OsgEarthNet.uav[61] utilizationFail 0
scalar OsgEarthNet.uav[61] simulationTime 259200
scalar OsgEarthNet.uav[62] utilizationSecMission 40744.849579461
scalar OsgEarthNet.uav[62] utilizationSecMaintenance 15653.148420539
scalar OsgEarthNet.uav[62] utilizationSecCharge 196190
scalar OsgEarthNet.uav[62] utilizationSecIdle 6612.001
scalar OsgEarthNet.uav[62] utilizationEnergyMission 195918.75322793
scalar OsgEarthNet.uav[62] utilizationEnergyMaintenance 71745.354297638
scalar OsgEarthNet.uav[62] utilizationEnergyCharge 266408.75927734
scalar OsgEarthNet.uav[62] utilizationEnergyOverdrawMission 0
scalar OsgEarthNet.uav[62] utilizationEnergyOverdrawMaintenance 0
scalar OsgEarthNet.uav[62] utilizationCountMissions 57
scalar OsgEarthNet.uav[62] utilizationCountManeuversMission 1157
scalar OsgEarthNet.uav[62] utilizationCountManeuversMaintenance 115
scalar OsgEarthNet.uav[62] utilizationCountChargeState 57
scalar OsgEarthNet.uav[62] utilizationCountOverdrawnAfterMission 0
scalar OsgEarthNet.uav[62] utilizationCountIdleState 32
scalar OsgEarthNet.uav[62] utilizationFail 0
scalar OsgEarthNet.uav[62] simulationTime 259200
scalar OsgEarthNet.uav[63] utilizationSecMission 14765.626373223
scalar OsgEarthNet.uav[63] utilizationSecMaintenance 9616.8157869966
scalar OsgEarthNet.uav[63] utilizationSecCharge 90750
scalar OsgEarthNet.uav[63] utilizationSecIdle 144067.55683978
scalar OsgEarthNet.uav[63] utilizationEnergyMission 71676.135005951
scalar OsgEarthNet.uav[63] utilizationEnergyMaintenance 45848.693180084
scalar OsgEarthNet.uav[63] utilizationEnergyCharge 116908.12353516
scalar OsgEarthNet.uav[63] utilizationEnergyOverdrawMission 0
scalar OsgEarthNet.uav[63] utilizationEnergyOverdrawMaintenance 0
scalar OsgEarthNet.uav[63] utilizationCountMissions 26
scalar OsgEarthNet.uav[63] utilizationCountManeuversMission 504
scalar OsgEarthNet.uav[63] utilizationCountManeuversMaintenance 52
scalar OsgEarthNet.uav[63] utilizationCountChargeState 26
scalar OsgEarthNet.uav[63] utilizationCountOverdrawnAfterMission 0
scalar OsgEarthNet.uav[63] utilizationCountIdleState 27
scalar OsgEarthNet.uav[63] utilizationFail 0
scalar OsgEarthNet.uav[63] simulationTime 259200
scalar OsgEarthNet.uav[64] utilizationSecMission 33599.963600438
scalar OsgEarthNet.uav[64] utilizationSecMaintenance 15451.459213702
scalar OsgEarthNet.uav[64] utilizationSecCharge 173714.90800787
scalar OsgEarthNet.uav[64] utilizationSecIdle 36433.668177988
scalar OsgEarthNet.uav[64] utilizationEnergyMission 163595.93553162
scalar OsgEarthNet.uav[64] utilizationEnergyMaintenance 72807.56211853
scalar OsgEarthNet.uav[64] utilizationEnergyCharge 230111.94256592
scalar OsgEarthNet.uav[64] utilizationEnergyOverdrawMission 0
scalar OsgEarthNet.uav[64] utilizationEnergyOverdrawMaintenance 0
scalar OsgEarthNet.uav[64] utilizationCountMissions 53
scalar OsgEarthNet.uav[64] utilizationCountManeuversMission 1012
scalar OsgEarthNet.uav[64] utilizationCountManeuversMaintenance 106
scalar OsgEarthNet.uav[64] utilizationCountChargeState 53
scalar OsgEarthNet.uav[64] utilizationCountOverdrawnAfterMission 0
scalar OsgEarthNet.uav[64] utilizationCountIdleState 32
scalar OsgEarthNet.uav[64] utilizationFail 0
scalar OsgEarthNet.uav[64] simulationTime 259200
scalar OsgEarthNet.uav[65] utilizationSecMission 39687.453154496
scalar OsgEarthNet.uav[65] utilizationSecMaintenance 16563.984281467
scalar OsgEarthNet.uav[65] utilizationSecCharge 195546.55656404
[...]
scalar OsgEarthNet.uav[130] utilizationSecIdle 259199.999
scalar OsgEarthNet.uav[130] utilizationEnergyMission 0
scalar OsgEarthNet.uav[130] utilizationEnergyMaintenance 0
scalar OsgEarthNet.uav[130] utilizationEnergyCharge 0
scalar OsgEarthNet.uav[130] utilizationEnergyOverdrawMission 0
scalar OsgEarthNet.uav[130] utilizationEnergyOverdrawMaintenance 0
scalar OsgEarthNet.uav[130] utilizationCountMissions 0
scalar OsgEarthNet.uav[130] utilizationCountManeuversMission 0
scalar OsgEarthNet.uav[130] utilizationCountManeuversMaintenance 0
scalar OsgEarthNet.uav[130] utilizationCountChargeState 0
scalar OsgEarthNet.uav[130] utilizationCountOverdrawnAfterMission 0
scalar OsgEarthNet.uav[130] utilizationCountIdleState 1
scalar OsgEarthNet.uav[130] utilizationFail 0
scalar OsgEarthNet.uav[130] simulationTime 259200
scalar OsgEarthNet.uav[131] utilizationSecMission 0
scalar OsgEarthNet.uav[131] utilizationSecMaintenance 0
scalar OsgEarthNet.uav[131] utilizationSecCharge 0
scalar OsgEarthNet.uav[131] utilizationSecIdle 259199.999
scalar OsgEarthNet.uav[131] utilizationEnergyMission 0
scalar OsgEarthNet.uav[131] utilizationEnergyMaintenance 0
scalar OsgEarthNet.uav[131] utilizationEnergyCharge 0
scalar OsgEarthNet.uav[131] utilizationEnergyOverdrawMission 0
scalar OsgEarthNet.uav[131] utilizationEnergyOverdrawMaintenance 0
scalar OsgEarthNet.uav[131] utilizationCountMissions 0
scalar OsgEarthNet.uav[131] utilizationCountManeuversMission 0
scalar OsgEarthNet.uav[131] utilizationCountManeuversMaintenance 0
scalar OsgEarthNet.uav[131] utilizationCountChargeState 0
scalar OsgEarthNet.uav[131] utilizationCountOverdrawnAfterMission 0
scalar OsgEarthNet.uav[131] utilizationCountIdleState 1
scalar OsgEarthNet.uav[131] utilizationFail 0
scalar OsgEarthNet.uav[131] simulationTime 259200
scalar OsgEarthNet.uav[132] utilizationSecMission 0
scalar OsgEarthNet.uav[132] utilizationSecMaintenance 0
scalar OsgEarthNet.uav[132] utilizationSecCharge 0
scalar OsgEarthNet.uav[132] utilizationSecIdle 259199.999
scalar OsgEarthNet.uav[132] utilizationEnergyMission 0
scalar OsgEarthNet.uav[132] utilizationEnergyMaintenance 0
scalar OsgEarthNet.uav[132] utilizationEnergyCharge 0
scalar OsgEarthNet.uav[132] utilizationEnergyOverdrawMission 0
scalar OsgEarthNet.uav[132] utilizationEnergyOverdrawMaintenance 0
scalar OsgEarthNet.uav[132] utilizationCountMissions 0
scalar OsgEarthNet.uav[132] utilizationCountManeuversMission 0
scalar OsgEarthNet.uav[132] utilizationCountManeuversMaintenance 0
scalar OsgEarthNet.uav[132] utilizationCountChargeState 0
scalar OsgEarthNet.uav[132] utilizationCountOverdrawnAfterMission 0
scalar OsgEarthNet.uav[132] utilizationCountIdleState 1
scalar OsgEarthNet.uav[132] utilizationFail 0
scalar OsgEarthNet.uav[132] simulationTime 259200
scalar OsgEarthNet.uav[133] utilizationSecMission 0
scalar OsgEarthNet.uav[133] utilizationSecMaintenance 0
scalar OsgEarthNet.uav[133] utilizationSecCharge 0
scalar OsgEarthNet.uav[133] utilizationSecIdle 259199.999
scalar OsgEarthNet.uav[133] utilizationEnergyMission 0
scalar OsgEarthNet.uav[133] utilizationEnergyMaintenance 0
scalar OsgEarthNet.uav[133] utilizationEnergyCharge 0
scalar OsgEarthNet.uav[133] utilizationEnergyOverdrawMission 0
scalar OsgEarthNet.uav[133] utilizationEnergyOverdrawMaintenance 0
scalar OsgEarthNet.uav[133] utilizationCountMissions 0
scalar OsgEarthNet.uav[133] utilizationCountManeuversMission 0
scalar OsgEarthNet.uav[133] utilizationCountManeuversMaintenance 0
scalar OsgEarthNet.uav[133] utilizationCountChargeState 0
scalar OsgEarthNet.uav[133] utilizationCountOverdrawnAfterMission 0
scalar OsgEarthNet.uav[133] utilizationCountIdleState 1
scalar OsgEarthNet.uav[133] utilizationFail 0
scalar OsgEarthNet.uav[133] simulationTime 259200
scalar OsgEarthNet.uav[134] utilizationSecMission 0
scalar OsgEarthNet.uav[134] utilizationSecMaintenance 0
scalar OsgEarthNet.uav[134] utilizationSecCharge 0
scalar OsgEarthNet.uav[134] utilizationSecIdle 259199.999
scalar OsgEarthNet.uav[134] utilizationEnergyMission 0
scalar OsgEarthNet.uav[134] utilizationEnergyMaintenance 0
scalar OsgEarthNet.uav[134] utilizationEnergyCharge 0
scalar OsgEarthNet.uav[134] utilizationEnergyOverdrawMission 0
scalar OsgEarthNet.uav[134] utilizationEnergyOverdrawMaintenance 0
scalar OsgEarthNet.uav[134] utilizationCountMissions 0
scalar OsgEarthNet.uav[134] utilizationCountManeuversMission 0
scalar OsgEarthNet.uav[134] utilizationCountManeuversMaintenance 0
scalar OsgEarthNet.uav[134] utilizationCountChargeState 0
scalar OsgEarthNet.uav[134] utilizationCountOverdrawnAfterMission 0
scalar OsgEarthNet.uav[134] utilizationCountIdleState 1
scalar OsgEarthNet.uav[134] utilizationFail 0
scalar OsgEarthNet.uav[134] simulationTime 259200
scalar OsgEarthNet.uav[135] utilizationSecMission 0
scalar OsgEarthNet.uav[135] utilizationSecMaintenance 0
scalar OsgEarthNet.uav[135] utilizationSecCharge 0
scalar OsgEarthNet.uav[135] utilizationSecIdle 259199.999
scalar OsgEarthNet.uav[135] utilizationEnergyMission 0
scalar OsgEarthNet.uav[135] utilizationEnergyMaintenance 0
scalar OsgEarthNet.uav[135] utilizationEnergyCharge 0
scalar OsgEarthNet.uav[135] utilizationEnergyOverdrawMission 0
scalar OsgEarthNet.uav[135] utilizationEnergyOverdrawMaintenance 0
scalar OsgEarthNet.uav[135] utilizationCountMissions 0
scalar OsgEarthNet.uav[135] utilizationCountManeuversMission 0
scalar OsgEarthNet.uav[135] utilizationCountManeuversMaintenance 0
scalar OsgEarthNet.uav[135] utilizationCountChargeState 0
scalar OsgEarthNet.uav[135] utilizationCountOverdrawnAfterMission 0
scalar OsgEarthNet.uav[135] utilizationCountIdleState 1
scalar OsgEarthNet.uav[135] utilizationFail 0
scalar OsgEarthNet.uav[135] simulationTime 259200
scalar OsgEarthNet.uav[136] utilizationSecMission 0
scalar OsgEarthNet.uav[136] utilizationSecMaintenance 0
scalar OsgEarthNet.uav[136] utilizationSecCharge 0
scalar OsgEarthNet.uav[136] utilizationSecIdle 259199.999
scalar OsgEarthNet.uav[136] utilizationEnergyMission 0
scalar OsgEarthNet.uav[136] utilizationEnergyMaintenance 0
scalar OsgEarthNet.uav[136] utilizationEnergyCharge 0
scalar OsgEarthNet.uav[136] utilizationEnergyOverdrawMission 0
scalar OsgEarthNet.uav[136] utilizationEnergyOverdrawMaintenance 0
scalar OsgEarthNet.uav[136] utilizationCountMissions 0
scalar OsgEarthNet.uav[136] utilizationCountManeuversMission 0
scalar OsgEarthNet.uav[136] utilizationCountManeuversMaintenance 0
scalar OsgEarthNet.uav[136] utilizationCountChargeState 0
scalar OsgEarthNet.uav[136] utilizationCountOverdrawnAfterMission 0
scalar OsgEarthNet.uav[136] utilizationCountIdleState 1
scalar OsgEarthNet.uav[136] utilizationFail 0
scalar OsgEarthNet.uav[136] simulationTime 259200
scalar OsgEarthNet.uav[137] utilizationSecMission 0
scalar OsgEarthNet.uav[137] utilizationSecMaintenance 0
scalar OsgEarthNet.uav[137] utilizationSecCharge 0
scalar OsgEarthNet.uav[137] utilizationSecIdle 259199.999
scalar OsgEarthNet.uav[137] utilizationEnergyMission 0
scalar OsgEarthNet.uav[137] utilizationEnergyMaintenance 0
scalar OsgEarthNet.uav[137] utilizationEnergyCharge 0
scalar OsgEarthNet.uav[137] utilizationEnergyOverdrawMission 0
scalar OsgEarthNet.uav[137] utilizationEnergyOverdrawMaintenance 0
scalar OsgEarthNet.uav[137] utilizationCountMissions 0
scalar OsgEarthNet.uav[137] utilizationCountManeuversMission 0
scalar OsgEarthNet.uav[137] utilizationCountManeuversMaintenance 0
scalar OsgEarthNet.uav[137] utilizationCountChargeState 0
scalar OsgEarthNet.uav[137] utilizationCountOverdrawnAfterMission 0
scalar OsgEarthNet.uav[137] utilizationCountIdleState 1
scalar OsgEarthNet.uav[137] utilizationFail 0
scalar OsgEarthNet.uav[137] simulationTime 259200
scalar OsgEarthNet.uav[138] utilizationSecMission 0
scalar OsgEarthNet.uav[138] utilizationSecMaintenance 0
scalar OsgEarthNet.uav[138] utilizationSecCharge 0
scalar OsgEarthNet.uav[138] utilizationSecIdle 259199.999
scalar OsgEarthNet.uav[138] utilizationEnergyMission 0
scalar OsgEarthNet.uav[138] utilizationEnergyMaintenance 0
scalar OsgEarthNet.uav[138] utilizationEnergyCharge 0
scalar OsgEarthNet.uav[138] utilizationEnergyOverdrawMission 0
scalar OsgEarthNet.uav[138] utilizationEnergyOverdrawMaintenance 0
scalar OsgEarthNet.uav[138] utilizationCountMissions 0
scalar OsgEarthNet.uav[138] utilizationCountManeuversMission 0
scalar OsgEarthNet.uav[138] utilizationCountManeuversMaintenance 0
scalar OsgEarthNet.uav[138] utilizationCountChargeState 0
scalar OsgEarthNet.uav[138] utilizationCountOverdrawnAfterMission 0
scalar OsgEarthNet.uav[138] utilizationCountIdleState 1
scalar OsgEarthNet.uav[138] utilizationFail 0
scalar OsgEarthNet.uav[138] simulationTime 259200
scalar OsgEarthNet.uav[139] utilizationSecMission 0
scalar OsgEarthNet.uav[139] utilizationSecMaintenance 0
scalar OsgEarthNet.uav[139] utilizationSecCharge 0
scalar OsgEarthNet.uav[139] utilizationSecIdle 259199.999
scalar OsgEarthNet.uav[139] utilizationEnergyMission 0
scalar OsgEarthNet.uav[139] utilizationEnergyMaintenance 0
scalar OsgEarthNet.uav[139] utilizationEnergyCharge 0
scalar OsgEarthNet.uav[139] utilizationEnergyOverdrawMission 0
scalar OsgEarthNet.uav[139] utilizationEnergyOverdrawMaintenance 0
scalar OsgEarthNet.uav[139] utilizationCountMissions 0
scalar OsgEarthNet.uav[139] utilizationCountManeuversMission 0
scalar OsgEarthNet.uav[139] utilizationCountManeuversMaintenance 0
scalar OsgEarthNet.uav[139] utilizationCountChargeState 0
scalar OsgEarthNet.uav[139] utilizationCountOverdrawnAfterMission 0
scalar OsgEarthNet.uav[139] utilizationCountIdleState 1
scalar OsgEarthNet.uav[139] utilizationFail 0
scalar OsgEarthNet.uav[139] simulationTime 259200
scalar OsgEarthNet.uav[140] utilizationSecMission 0
scalar OsgEarthNet.uav[140] utilizationSecMaintenance 0
scalar OsgEarthNet.uav[140] utilizationSecCharge 0
scalar OsgEarthNet.uav[140] utilizationSecIdle 259199.999
scalar OsgEarthNet.uav[140] utilizationEnergyMission 0
scalar OsgEarthNet.uav[140] utilizationEnergyMaintenance 0
scalar OsgEarthNet.uav[140] utilizationEnergyCharge 0
scalar OsgEarthNet.uav[140] utilizationEnergyOverdrawMission 0
scalar OsgEarthNet.uav[140] utilizationEnergyOverdrawMaintenance 0
scalar OsgEarthNet.uav[140] utilizationCountMissions 0
scalar OsgEarthNet.uav[140] utilizationCountManeuversMission 0
scalar OsgEarthNet.uav[140] utilizationCountManeuversMaintenance 0
scalar OsgEarthNet.uav[140] utilizationCountChargeState 0
scalar OsgEarthNet.uav[140] utilizationCountOverdrawnAfterMission 0
scalar OsgEarthNet.uav[140] utilizationCountIdleState 1
scalar OsgEarthNet.uav[140] utilizationFail 0
scalar OsgEarthNet.uav[140] simulationTime 259200
scalar OsgEarthNet.uav[141] utilizationSecMission 0
scalar OsgEarthNet.uav[141] utilizationSecMaintenance 0
scalar OsgEarthNet.uav[141] utilizationSecCharge 0
scalar OsgEarthNet.uav[141] utilizationSecIdle 259199.999
scalar OsgEarthNet.uav[141] utilizationEnergyMission 0
scalar OsgEarthNet.uav[141] utilizationEnergyMaintenance 0
scalar OsgEarthNet.uav[141] utilizationEnergyCharge 0
scalar OsgEarthNet.uav[141] utilizationEnergyOverdrawMission 0
scalar OsgEarthNet.uav[141] utilizationEnergyOverdrawMaintenance 0
scalar OsgEarthNet.uav[141] utilizationCountMissions 0
scalar OsgEarthNet.uav[141] utilizationCountManeuversMission 0
scalar OsgEarthNet.uav[141] utilizationCountManeuversMaintenance 0
scalar OsgEarthNet.uav[141] utilizationCountChargeState 0
scalar OsgEarthNet.uav[141] utilizationCountOverdrawnAfterMission 0
scalar OsgEarthNet.uav[141] utilizationCountIdleState 1
scalar OsgEarthNet.uav[141] utilizationFail 0
scalar OsgEarthNet.uav[141] simulationTime 259200
scalar OsgEarthNet.uav[142] utilizationSecMission 0
scalar OsgEarthNet.uav[142] utilizationSecMaintenance 0
scalar OsgEarthNet.uav[142] utilizationSecCharge 0
scalar OsgEarthNet.uav[142] utilizationSecIdle 259199.999
scalar OsgEarthNet.uav[142] utilizationEnergyMission 0
scalar OsgEarthNet.uav[142] utilizationEnergyMaintenance 0
scalar OsgEarthNet.uav[142] utilizationEnergyCharge 0
scalar OsgEarthNet.uav[142] utilizationEnergyOverdrawMission 0
scalar OsgEarthNet.uav[142] utilizationEnergyOverdrawMaintenance 0
scalar OsgEarthNet.uav[142] utilizationCountMissions 0
scalar OsgEarthNet.uav[142] utilizationCountManeuversMission 0
scalar OsgEarthNet.uav[142] utilizationCountManeuversMaintenance 0
scalar OsgEarthNet.uav[142] utilizationCountChargeState 0
scalar OsgEarthNet.uav[142] utilizationCountOverdrawnAfterMission 0
scalar OsgEarthNet.uav[142] utilizationCountIdleState 1
scalar OsgEarthNet.uav[142] utilizationFail 0
scalar OsgEarthNet.uav[142] simulationTime 259200
scalar OsgEarthNet.uav[143] utilizationSecMission 0
scalar OsgEarthNet.uav[143] utilizationSecMaintenance 0
scalar OsgEarthNet.uav[143] utilizationSecCharge 0
scalar OsgEarthNet.uav[143] utilizationSecIdle 259199.999
scalar OsgEarthNet.uav[143] utilizationEnergyMission 0
scalar OsgEarthNet.uav[143] utilizationEnergyMaintenance 0
scalar OsgEarthNet.uav[143] utilizationEnergyCharge 0
scalar OsgEarthNet.uav[143] utilizationEnergyOverdrawMission 0
scalar OsgEarthNet.uav[143] utilizationEnergyOverdrawMaintenance 0
scalar OsgEarthNet.uav[143] utilizationCountMissions 0
scalar OsgEarthNet.uav[143] utilizationCountManeuversMission 0
scalar OsgEarthNet.uav[143] utilizationCountManeuversMaintenance 0
scalar OsgEarthNet.uav[143] utilizationCountChargeState 0
scalar OsgEarthNet.uav[143] utilizationCountOverdrawnAfterMission 0
scalar OsgEarthNet.uav[143] utilizationCountIdleState 1
scalar OsgEarthNet.uav[143] utilizationFail 0
scalar OsgEarthNet.uav[143] simulationTime 259200
scalar OsgEarthNet.uav[144] utilizationSecMission 0
scalar OsgEarthNet.uav[144] utilizationSecMaintenance 0
scalar OsgEarthNet.uav[144] utilizationSecCharge 0
scalar OsgEarthNet.uav[144] utilizationSecIdle 259199.999
scalar OsgEarthNet.uav[144] utilizationEnergyMission 0
scalar OsgEarthNet.uav[144] utilizationEnergyMaintenance 0
scalar OsgEarthNet.uav[144] utilizationEnergyCharge 0
scalar OsgEarthNet.uav[144] utilizationEnergyOverdrawMission 0
scalar OsgEarthNet.uav[144] utilizationEnergyOverdrawMaintenance 0
scalar OsgEarthNet.uav[144] utilizationCountMissions 0
scalar OsgEarthNet.uav[144] utilizationCountManeuversMission 0
scalar OsgEarthNet.uav[144] utilizationCountManeuversMaintenance 0
scalar OsgEarthNet.uav[144] utilizationCountChargeState 0
scalar OsgEarthNet.uav[144] utilizationCountOverdrawnAfterMission 0
scalar OsgEarthNet.uav[144] utilizationCountIdleState 1
scalar OsgEarthNet.uav[144] utilizationFail 0
scalar OsgEarthNet.uav[144] simulationTime 259200
scalar OsgEarthNet.uav[145] utilizationSecMission 0
scalar OsgEarthNet.uav[145] utilizationSecMaintenance 0
scalar OsgEarthNet.uav[145] utilizationSecCharge 0
scalar OsgEarthNet.uav[145] utilizationSecIdle 259199.999
scalar OsgEarthNet.uav[145] utilizationEnergyMission 0
scalar OsgEarthNet.uav[145] utilizationEnergyMaintenance 0
scalar OsgEarthNet.uav[145] utilizationEnergyCharge 0
scalar OsgEarthNet.uav[145] utilizationEnergyOverdrawMission 0
scalar OsgEarthNet.uav[145] utilizationEnergyOverdrawMaintenance 0
scalar OsgEarthNet.uav[145] utilizationCountMissions 0
scalar OsgEarthNet.uav[145] utilizationCountManeuversMission 0
scalar OsgEarthNet.uav[145] utilizationCountManeuversMaintenance 0
scalar OsgEarthNet.uav[145] utilizationCountChargeState 0
scalar OsgEarthNet.uav[145] utilizationCountOverdrawnAfterMission 0
scalar OsgEarthNet.uav[145] utilizationCountIdleState 1
scalar OsgEarthNet.uav[145] utilizationFail 0
scalar OsgEarthNet.uav[145] simulationTime 259200
scalar OsgEarthNet.uav[146] utilizationSecMission 0
scalar OsgEarthNet.uav[146] utilizationSecMaintenance 0
scalar OsgEarthNet.uav[146] utilizationSecCharge 0
scalar OsgEarthNet.uav[146] utilizationSecIdle 259199.999
scalar OsgEarthNet.uav[146] utilizationEnergyMission 0
scalar OsgEarthNet.uav[146] utilizationEnergyMaintenance 0
scalar OsgEarthNet.uav[146] utilizationEnergyCharge 0
scalar OsgEarthNet.uav[146] utilizationEnergyOverdrawMission 0
scalar OsgEarthNet.uav[146] utilizationEnergyOverdrawMaintenance 0
scalar OsgEarthNet.uav[146] utilizationCountMissions 0
scalar OsgEarthNet.uav[146] utilizationCountManeuversMission 0
scalar OsgEarthNet.uav[146] utilizationCountManeuversMaintenance 0
scalar OsgEarthNet.uav[146] utilizationCountChargeState 0
scalar OsgEarthNet.uav[146] utilizationCountOverdrawnAfterMission 0
scalar OsgEarthNet.uav[146] utilizationCountIdleState 1
scalar OsgEarthNet.uav[146] utilizationFail 0
scalar OsgEarthNet.uav[146] simulationTime 259200
scalar OsgEarthNet.uav[147] utilizationSecMission 0
scalar OsgEarthNet.uav[147] utilizationSecMaintenance 0
scalar OsgEarthNet.uav[147] utilizationSecCharge 0
scalar OsgEarthNet.uav[147] utilizationSecIdle 259199.999
scalar OsgEarthNet.uav[147] utilizationEnergyMission 0
scalar OsgEarthNet.uav[147] utilizationEnergyMaintenance 0
scalar OsgEarthNet.uav[147] utilizationEnergyCharge 0
scalar OsgEarthNet.uav[147] utilizationEnergyOverdrawMission 0
scalar OsgEarthNet.uav[147] utilizationEnergyOverdrawMaintenance 0
scalar OsgEarthNet.uav[147] utilizationCountMissions 0
scalar OsgEarthNet.uav[147] utilizationCountManeuversMission 0
scalar OsgEarthNet.uav[147] utilizationCountManeuversMaintenance 0
scalar OsgEarthNet.uav[147] utilizationCountChargeState 0
scalar OsgEarthNet.uav[147] utilizationCountOverdrawnAfterMission 0
scalar OsgEarthNet.uav[147] utilizationCountIdleState 1
scalar OsgEarthNet.uav[147] utilizationFail 0
scalar OsgEarthNet.uav[147] simulationTime 259200
scalar OsgEarthNet.uav[148] utilizationSecMission 0
scalar OsgEarthNet.uav[148] utilizationSecMaintenance 0
scalar OsgEarthNet.uav[148] utilizationSecCharge 0
scalar OsgEarthNet.uav[148] utilizationSecIdle 259199.999
scalar OsgEarthNet.uav[148] utilizationEnergyMission 0
scalar OsgEarthNet.uav[148] utilizationEnergyMaintenance 0
scalar OsgEarthNet.uav[148] utilizationEnergyCharge 0
scalar OsgEarthNet.uav[148] utilizationEnergyOverdrawMission 0
scalar OsgEarthNet.uav[148] utilizationEnergyOverdrawMaintenance 0
scalar OsgEarthNet.uav[148] utilizationCountMissions 0
scalar OsgEarthNet.uav[148] utilizationCountManeuversMission 0
scalar OsgEarthNet.uav[148] utilizationCountManeuversMaintenance 0
scalar OsgEarthNet.uav[148] utilizationCountChargeState 0
scalar OsgEarthNet.uav[148] utilizationCountOverdrawnAfterMission 0
scalar OsgEarthNet.uav[148] utilizationCountIdleState 1
scalar OsgEarthNet.uav[148] utilizationFail 0
scalar OsgEarthNet.uav[148] simulationTime 259200
scalar OsgEarthNet.uav[149] utilizationSecMission 0
scalar OsgEarthNet.uav[149] utilizationSecMaintenance 0
scalar OsgEarthNet.uav[149] utilizationSecCharge 0
scalar OsgEarthNet.uav[149] utilizationSecIdle 259199.999
scalar OsgEarthNet.uav[149] utilizationEnergyMission 0
scalar OsgEarthNet.uav[149] utilizationEnergyMaintenance 0
scalar OsgEarthNet.uav[149] utilizationEnergyCharge 0
scalar OsgEarthNet.uav[149] utilizationEnergyOverdrawMission 0
scalar OsgEarthNet.uav[149] utilizationEnergyOverdrawMaintenance 0
scalar OsgEarthNet.uav[149] utilizationCountMissions 0
scalar OsgEarthNet.uav[149] utilizationCountManeuversMission 0
scalar OsgEarthNet.uav[149] utilizationCountManeuversMaintenance 0
scalar OsgEarthNet.uav[149] utilizationCountChargeState 0
scalar OsgEarthNet.uav[149] utilizationCountOverdrawnAfterMission 0
scalar OsgEarthNet.uav[149] utilizationCountIdleState 1
scalar OsgEarthNet.uav[149] utilizationFail 0
scalar OsgEarthNet.uav[149] simulationTime 259200
scalar OsgEarthNet.cs[0] usedPower 3989387.7414472
scalar OsgEarthNet.cs[0] chargedPower 3989387.7414472
scalar OsgEarthNet.cs[0] chargedMobileNodes 876
scalar OsgEarthNet.cs[0] reservations 889
scalar OsgEarthNet.cs[1] usedPower 4127495.1277538
scalar OsgEarthNet.cs[1] chargedPower 4127495.1277538
scalar OsgEarthNet.cs[1] chargedMobileNodes 1027
scalar OsgEarthNet.cs[1] reservations 1039
scalar OsgEarthNet.cs[2] usedPower 8686586.9808708
scalar OsgEarthNet.cs[2] chargedPower 8686586.9808708
scalar OsgEarthNet.cs[2] chargedMobileNodes 775
scalar OsgEarthNet.cs[2] reservations 1893

