version 2
run Szenario_Hotel_Gabelbach-248-20180712-07:56:57-792
attr configname Szenario_Hotel_Gabelbach
attr datetime 20180712-07:56:57
attr experiment Szenario_Hotel_Gabelbach
attr inifile omnetpp.ini
attr iterationvars "$replM=2, $biWeight=0.35, $replSearchM=1, $numUAVs=200"
attr iterationvarsf replM=2,biWeight=0.35,replSearchM=1,numUAVs=200-
attr measurement "$replM=2, $biWeight=0.35, $replSearchM=1, $numUAVs=200"
attr network OsgEarthNet
attr processid 792
attr repetition 8
attr replication #8
attr resultdir results
attr runnumber 248
attr seedset 248
itervar biWeight 0.35
itervar numUAVs 200
itervar replM 2
itervar replSearchM 1
param *.osgEarthScene.scene "\"Szenario_Hotel_Gabelbach.earth\""
param *.playgroundLatitude 50.6830269
param *.playgroundLongitude 10.8538055
param *.playgroundWidth 3500m
param *.playgroundHeight 3500m
param *.cs[0].posX 3537m
param *.cs[0].posY 965m
param *.cs[0].posZ 538m
param *.cs[1].posX 312m
param *.cs[1].posY 1262m
param *.cs[1].posZ 539m
param *.cs[2].posX 2185m
param *.cs[2].posY 3026m
param *.cs[2].posZ 777m
param *.cs[3].posX 10m
param *.cs[3].posY 2200m
param *.cs[3].posZ 560m
param *.cs[4].posX 750m
param *.cs[4].posY 200m
param *.cs[4].posZ 540m
param *.cs[5].posX 2450m
param *.cs[5].posY 180m
param *.cs[5].posZ 524m
param *.cs[6].posX 3140m
param *.cs[6].posY 1790m
param *.cs[6].posZ 606m
param *.numCSs 3
param *.uav[*].replacementMethod 2
param *.uav[*].weightedSumWeight 0.35
param *.missionControl.replacementSearchMethod 1
param *.numUAVs 200
param *.numCSs 3
param *.numUAVs 100
param *.*.timeStep 10s
param *.uav[*].commandPreviewCommandCount 20
param *.missionControl.missionFiles "\"missions\\\\Szenario_WB_Hotel_Gabelbach_Mission_Hotel.waypoints,missions\\\\Szenario_WB_Hotel_Gabelbach_Mission_Kickelhahn.waypoints,missions\\\\Szenario_WB_Hotel_Gabelbach_Mission_Ilmenau_Sportplatz.waypoints,missions\\\\Szenario_WB_Hotel_Gabelbach_Mission_Manebach_Mitte.waypoints,missions\\\\Szenario_WB_Hotel_Gabelbach_Mission_Manebach_Sued.waypoints,missions\\\\Szenario_WB_Hotel_Gabelbach_Hover_HoheSchlaufe.waypoints,missions\\\\Szenario_WB_Hotel_Gabelbach_Hover_Kickelhahn.waypoints,missions\\\\Szenario_WB_Hotel_Gabelbach_Hover_Gabelbachskopf.waypoints,missions\\\\Szenario_WB_Hotel_Gabelbach_Hover_Dachskopf.waypoints\""
param *.uav[0].startX 3537m
param *.uav[0].startY 965m
param *.uav[0].startZ 539m
param *.uav[1].startX 312m
param *.uav[1].startY 1262m
param *.uav[1].startZ 540m
param *.uav[2].startX 2185m
param *.uav[2].startY 3026m
param *.uav[2].startZ 778m
param *.uav[3].startX 3537m
param *.uav[3].startY 965m
param *.uav[3].startZ 539m
param *.uav[4].startX 312m
param *.uav[4].startY 1262m
param *.uav[4].startZ 540m
param *.uav[5].startX 2185m
param *.uav[5].startY 3026m
param *.uav[5].startZ 778m
param *.uav[6].startX 3537m
param *.uav[6].startY 965m
param *.uav[6].startZ 539m
param *.uav[7].startX 312m
param *.uav[7].startY 1262m
param *.uav[7].startZ 540m
param *.uav[8].startX 2185m
param *.uav[8].startY 3026m
param *.uav[8].startZ 778m
param *.uav[9].startX 3537m
param *.uav[9].startY 965m
param *.uav[9].startZ 539m
param *.uav[10].startX 3537m
param *.uav[10].startY 965m
param *.uav[10].startZ 539m
param *.uav[11].startX 312m
param *.uav[11].startY 1262m
param *.uav[11].startZ 540m
param *.uav[12].startX 2185m
param *.uav[12].startY 3026m
param *.uav[12].startZ 778m
param *.uav[13].startX 3537m
param *.uav[13].startY 965m
param *.uav[13].startZ 539m
param *.uav[14].startX 312m
param *.uav[14].startY 1262m
param *.uav[14].startZ 540m
param *.uav[15].startX 2185m
param *.uav[15].startY 3026m
param *.uav[15].startZ 778m
param *.uav[16].startX 3537m
param *.uav[16].startY 965m
param *.uav[16].startZ 539m
param *.uav[17].startX 312m
param *.uav[17].startY 1262m
param *.uav[17].startZ 540m
param *.uav[18].startX 2185m
param *.uav[18].startY 3026m
param *.uav[18].startZ 778m
param *.uav[19].startX 3537m
param *.uav[19].startY 965m
param *.uav[19].startZ 539m
param *.uav[20].startX 3537m
param *.uav[20].startY 965m
param *.uav[20].startZ 539m
param *.uav[21].startX 312m
param *.uav[21].startY 1262m
param *.uav[21].startZ 540m
param *.uav[22].startX 2185m
param *.uav[22].startY 3026m
param *.uav[22].startZ 778m
param *.uav[23].startX 3537m
param *.uav[23].startY 965m
param *.uav[23].startZ 539m
param *.uav[24].startX 312m
param *.uav[24].startY 1262m
param *.uav[24].startZ 540m
param *.uav[25].startX 2185m
param *.uav[25].startY 3026m
param *.uav[25].startZ 778m
param *.uav[26].startX 3537m
param *.uav[26].startY 965m
param *.uav[26].startZ 539m
param *.uav[27].startX 312m
param *.uav[27].startY 1262m
param *.uav[27].startZ 540m
param *.uav[28].startX 2185m
param *.uav[28].startY 3026m
param *.uav[28].startZ 778m
param *.uav[29].startX 3537m
param *.uav[29].startY 965m
param *.uav[29].startZ 539m
param *.uav[30].startX 3537m
param *.uav[30].startY 965m
param *.uav[30].startZ 539m
param *.uav[31].startX 312m
param *.uav[31].startY 1262m
param *.uav[31].startZ 540m
param *.uav[32].startX 2185m
param *.uav[32].startY 3026m
param *.uav[32].startZ 778m
param *.uav[33].startX 3537m
param *.uav[33].startY 965m
param *.uav[33].startZ 539m
param *.uav[34].startX 312m
param *.uav[34].startY 1262m
param *.uav[34].startZ 540m
param *.uav[35].startX 2185m
param *.uav[35].startY 3026m
param *.uav[35].startZ 778m
param *.uav[36].startX 3537m
param *.uav[36].startY 965m
param *.uav[36].startZ 539m
param *.uav[37].startX 312m
param *.uav[37].startY 1262m
param *.uav[37].startZ 540m
param *.uav[38].startX 2185m
param *.uav[38].startY 3026m
param *.uav[38].startZ 778m
param *.uav[39].startX 3537m
param *.uav[39].startY 965m
param *.uav[39].startZ 539m
param *.uav[40].startX 3537m
param *.uav[40].startY 965m
param *.uav[40].startZ 539m
param *.uav[41].startX 312m
param *.uav[41].startY 1262m
param *.uav[41].startZ 540m
param *.uav[42].startX 2185m
param *.uav[42].startY 3026m
param *.uav[42].startZ 778m
param *.uav[43].startX 3537m
param *.uav[43].startY 965m
param *.uav[43].startZ 539m
param *.uav[44].startX 312m
param *.uav[44].startY 1262m
param *.uav[44].startZ 540m
param *.uav[45].startX 2185m
param *.uav[45].startY 3026m
param *.uav[45].startZ 778m
param *.uav[46].startX 3537m
param *.uav[46].startY 965m
param *.uav[46].startZ 539m
param *.uav[47].startX 312m
param *.uav[47].startY 1262m
param *.uav[47].startZ 540m
param *.uav[48].startX 2185m
param *.uav[48].startY 3026m
param *.uav[48].startZ 778m
param *.uav[49].startX 3537m
param *.uav[49].startY 965m
param *.uav[49].startZ 539m
param *.uav[50].startX 3537m
param *.uav[50].startY 965m
param *.uav[50].startZ 539m
param *.uav[51].startX 312m
param *.uav[51].startY 1262m
param *.uav[51].startZ 540m
param *.uav[52].startX 2185m
param *.uav[52].startY 3026m
param *.uav[52].startZ 778m
param *.uav[53].startX 3537m
param *.uav[53].startY 965m
param *.uav[53].startZ 539m
param *.uav[54].startX 312m
param *.uav[54].startY 1262m
param *.uav[54].startZ 540m
param *.uav[55].startX 2185m
param *.uav[55].startY 3026m
param *.uav[55].startZ 778m
param *.uav[56].startX 3537m
param *.uav[56].startY 965m
param *.uav[56].startZ 539m
param *.uav[57].startX 312m
param *.uav[57].startY 1262m
param *.uav[57].startZ 540m
param *.uav[58].startX 2185m
param *.uav[58].startY 3026m
param *.uav[58].startZ 778m
param *.uav[59].startX 3537m
param *.uav[59].startY 965m
param *.uav[59].startZ 539m
param *.uav[60].startX 3537m
param *.uav[60].startY 965m
param *.uav[60].startZ 539m
param *.uav[61].startX 312m
param *.uav[61].startY 1262m
param *.uav[61].startZ 540m
param *.uav[62].startX 2185m
param *.uav[62].startY 3026m
param *.uav[62].startZ 778m
param *.uav[63].startX 3537m
param *.uav[63].startY 965m
param *.uav[63].startZ 539m
param *.uav[64].startX 312m
param *.uav[64].startY 1262m
param *.uav[64].startZ 540m
param *.uav[65].startX 2185m
param *.uav[65].startY 3026m
param *.uav[65].startZ 778m
param *.uav[66].startX 3537m
param *.uav[66].startY 965m
param *.uav[66].startZ 539m
param *.uav[67].startX 312m
param *.uav[67].startY 1262m
param *.uav[67].startZ 540m
param *.uav[68].startX 2185m
param *.uav[68].startY 3026m
param *.uav[68].startZ 778m
param *.uav[69].startX 3537m
param *.uav[69].startY 965m
param *.uav[69].startZ 539m
param *.uav[70].startX 3537m
param *.uav[70].startY 965m
param *.uav[70].startZ 539m
param *.uav[71].startX 312m
param *.uav[71].startY 1262m
param *.uav[71].startZ 540m
param *.uav[72].startX 2185m
param *.uav[72].startY 3026m
param *.uav[72].startZ 778m
param *.uav[73].startX 3537m
param *.uav[73].startY 965m
param *.uav[73].startZ 539m
param *.uav[74].startX 312m
param *.uav[74].startY 1262m
param *.uav[74].startZ 540m
param *.uav[75].startX 2185m
param *.uav[75].startY 3026m
param *.uav[75].startZ 778m
param *.uav[76].startX 3537m
param *.uav[76].startY 965m
param *.uav[76].startZ 539m
param *.uav[77].startX 312m
param *.uav[77].startY 1262m
param *.uav[77].startZ 540m
param *.uav[78].startX 2185m
param *.uav[78].startY 3026m
param *.uav[78].startZ 778m
param *.uav[79].startX 3537m
param *.uav[79].startY 965m
param *.uav[79].startZ 539m
param *.uav[80].startX 3537m
param *.uav[80].startY 965m
param *.uav[80].startZ 539m
param *.uav[81].startX 312m
param *.uav[81].startY 1262m
param *.uav[81].startZ 540m
param *.uav[82].startX 2185m
param *.uav[82].startY 3026m
param *.uav[82].startZ 778m
param *.uav[83].startX 3537m
param *.uav[83].startY 965m
param *.uav[83].startZ 539m
param *.uav[84].startX 312m
param *.uav[84].startY 1262m
param *.uav[84].startZ 540m
param *.uav[85].startX 2185m
param *.uav[85].startY 3026m
param *.uav[85].startZ 778m
param *.uav[86].startX 3537m
param *.uav[86].startY 965m
param *.uav[86].startZ 539m
param *.uav[87].startX 312m
param *.uav[87].startY 1262m
param *.uav[87].startZ 540m
param *.uav[88].startX 2185m
param *.uav[88].startY 3026m
param *.uav[88].startZ 778m
param *.uav[89].startX 3537m
param *.uav[89].startY 965m
param *.uav[89].startZ 539m
param *.uav[90].startX 3537m
param *.uav[90].startY 965m
param *.uav[90].startZ 539m
param *.uav[91].startX 312m
param *.uav[91].startY 1262m
param *.uav[91].startZ 540m
param *.uav[92].startX 2185m
param *.uav[92].startY 3026m
param *.uav[92].startZ 778m
param *.uav[93].startX 3537m
param *.uav[93].startY 965m
param *.uav[93].startZ 539m
param *.uav[94].startX 312m
param *.uav[94].startY 1262m
param *.uav[94].startZ 540m
param *.uav[95].startX 2185m
param *.uav[95].startY 3026m
param *.uav[95].startZ 778m
param *.uav[96].startX 3537m
param *.uav[96].startY 965m
param *.uav[96].startZ 539m
param *.uav[97].startX 312m
param *.uav[97].startY 1262m
param *.uav[97].startZ 540m
param *.uav[98].startX 2185m
param *.uav[98].startY 3026m
param *.uav[98].startZ 778m
param *.uav[99].startX 3537m
param *.uav[99].startY 965m
param *.uav[99].startZ 539m
param *.osgEarthScene.scene "\"boston.earth\""
param *.playgroundLatitude 42.3558
param *.playgroundLongitude -71.0677
param *.playgroundWidth 400m
param *.playgroundHeight 200m
param *.channelController.connectionColor "\"#0000FF40\""
param *.channelController.showConnections false
param *.uav[*].modelURL "\"quadrocopter.small.obj.15.scale.0,0,90.rot\""
param *.uav[*].labelColor "\"#FF7C00CC\""
param *.uav[*].label2Color "\"#FF7C00EE\""
param *.uav[*].batteryCapacity 5200mAh
param *.uav[*].batteryRemaining uav[index].batteryCapacity
param *.uav[*].predictionQuantile 0.95
param *.uav[*].replacementMethod 2
param *.uav[*].weightedSumWeight 0.5
param *.cs[*].modelURL "\"chargingstation_v1.osgt.2.scale.0,0,0.rot.0,0,-15e-1.trans\""
param *.cs[*].spotsWaiting 999
param *.cs[*].spotsCharging 999
param *.cs[*].chargeEffectivenessPercentage 100
param *.cs[*].nonLinearPhaseStartPercentage 85
param *.cs[*].chargeCurrent 6.0A
param *.cs[*].prioritizeFastCharge true
param *.missionControl.replacementSearchMethod 0
param *.*.timeStep 9s

scalar OsgEarthNet.uav[0] utilizationSecMission 440
scalar OsgEarthNet.uav[0] utilizationSecMaintenance 447.1303002674
scalar OsgEarthNet.uav[0] utilizationSecCharge 3490
scalar OsgEarthNet.uav[0] utilizationSecIdle 254822.86869973
scalar OsgEarthNet.uav[0] utilizationEnergyMission 2239.7542457581
scalar OsgEarthNet.uav[0] utilizationEnergyMaintenance 2016.5196037292
scalar OsgEarthNet.uav[0] utilizationEnergyCharge 4461.8193359375
scalar OsgEarthNet.uav[0] utilizationEnergyOverdrawMission 0
scalar OsgEarthNet.uav[0] utilizationEnergyOverdrawMaintenance 0
scalar OsgEarthNet.uav[0] utilizationCountMissions 1
scalar OsgEarthNet.uav[0] utilizationCountManeuversMission 22
scalar OsgEarthNet.uav[0] utilizationCountManeuversMaintenance 2
scalar OsgEarthNet.uav[0] utilizationCountChargeState 1
scalar OsgEarthNet.uav[0] utilizationCountOverdrawnAfterMission 0
scalar OsgEarthNet.uav[0] utilizationCountIdleState 2
scalar OsgEarthNet.uav[0] utilizationFail 0
scalar OsgEarthNet.uav[0] simulationTime 259200
scalar OsgEarthNet.uav[1] utilizationSecMission 12115.359557106
scalar OsgEarthNet.uav[1] utilizationSecMaintenance 9128.0560787443
scalar OsgEarthNet.uav[1] utilizationSecCharge 85070
scalar OsgEarthNet.uav[1] utilizationSecIdle 152886.58336415
scalar OsgEarthNet.uav[1] utilizationEnergyMission 59144.690559387
scalar OsgEarthNet.uav[1] utilizationEnergyMaintenance 44323.232944489
scalar OsgEarthNet.uav[1] utilizationEnergyCharge 104296.24609375
scalar OsgEarthNet.uav[1] utilizationEnergyOverdrawMission 0
scalar OsgEarthNet.uav[1] utilizationEnergyOverdrawMaintenance 0
scalar OsgEarthNet.uav[1] utilizationCountMissions 27
scalar OsgEarthNet.uav[1] utilizationCountManeuversMission 426
scalar OsgEarthNet.uav[1] utilizationCountManeuversMaintenance 54
scalar OsgEarthNet.uav[1] utilizationCountChargeState 27
scalar OsgEarthNet.uav[1] utilizationCountOverdrawnAfterMission 0
scalar OsgEarthNet.uav[1] utilizationCountIdleState 28
scalar OsgEarthNet.uav[1] utilizationFail 0
scalar OsgEarthNet.uav[1] simulationTime 259200
scalar OsgEarthNet.uav[2] utilizationSecMission 40913.983893804
scalar OsgEarthNet.uav[2] utilizationSecMaintenance 16990.260503341
scalar OsgEarthNet.uav[2] utilizationSecCharge 197996.53498894
scalar OsgEarthNet.uav[2] utilizationSecIdle 3299.2196139157
scalar OsgEarthNet.uav[2] utilizationEnergyMission 197798.34563446
scalar OsgEarthNet.uav[2] utilizationEnergyMaintenance 79025.388290405
scalar OsgEarthNet.uav[2] utilizationEnergyCharge 272924.47851562
scalar OsgEarthNet.uav[2] utilizationEnergyOverdrawMission 0
scalar OsgEarthNet.uav[2] utilizationEnergyOverdrawMaintenance 0
scalar OsgEarthNet.uav[2] utilizationCountMissions 60
scalar OsgEarthNet.uav[2] utilizationCountManeuversMission 1230
scalar OsgEarthNet.uav[2] utilizationCountManeuversMaintenance 120
scalar OsgEarthNet.uav[2] utilizationCountChargeState 60
scalar OsgEarthNet.uav[2] utilizationCountOverdrawnAfterMission 0
scalar OsgEarthNet.uav[2] utilizationCountIdleState 19
scalar OsgEarthNet.uav[2] utilizationFail 0
scalar OsgEarthNet.uav[2] simulationTime 259200
scalar OsgEarthNet.uav[3] utilizationSecMission 760.62515258028
scalar OsgEarthNet.uav[3] utilizationSecMaintenance 280.27216773088
scalar OsgEarthNet.uav[3] utilizationSecCharge 3620
scalar OsgEarthNet.uav[3] utilizationSecIdle 254539.10167969
scalar OsgEarthNet.uav[3] utilizationEnergyMission 3421.1632385254
scalar OsgEarthNet.uav[3] utilizationEnergyMaintenance 1342.7065544128
scalar OsgEarthNet.uav[3] utilizationEnergyCharge 4763.8720703125
scalar OsgEarthNet.uav[3] utilizationEnergyOverdrawMission 0
scalar OsgEarthNet.uav[3] utilizationEnergyOverdrawMaintenance 0
scalar OsgEarthNet.uav[3] utilizationCountMissions 1
scalar OsgEarthNet.uav[3] utilizationCountManeuversMission 12
scalar OsgEarthNet.uav[3] utilizationCountManeuversMaintenance 2
scalar OsgEarthNet.uav[3] utilizationCountChargeState 1
scalar OsgEarthNet.uav[3] utilizationCountOverdrawnAfterMission 0
scalar OsgEarthNet.uav[3] utilizationCountIdleState 2
scalar OsgEarthNet.uav[3] utilizationFail 0
scalar OsgEarthNet.uav[3] simulationTime 259200
scalar OsgEarthNet.uav[4] utilizationSecMission 9702.9650396396
scalar OsgEarthNet.uav[4] utilizationSecMaintenance 6537.956138136
scalar OsgEarthNet.uav[4] utilizationSecCharge 63630
scalar OsgEarthNet.uav[4] utilizationSecIdle 179329.07782222
scalar OsgEarthNet.uav[4] utilizationEnergyMission 48087.879108429
scalar OsgEarthNet.uav[4] utilizationEnergyMaintenance 31087.849910736
scalar OsgEarthNet.uav[4] utilizationEnergyCharge 78615.719238281
scalar OsgEarthNet.uav[4] utilizationEnergyOverdrawMission 0
scalar OsgEarthNet.uav[4] utilizationEnergyOverdrawMaintenance 0
scalar OsgEarthNet.uav[4] utilizationCountMissions 20
scalar OsgEarthNet.uav[4] utilizationCountManeuversMission 286
scalar OsgEarthNet.uav[4] utilizationCountManeuversMaintenance 40
scalar OsgEarthNet.uav[4] utilizationCountChargeState 20
scalar OsgEarthNet.uav[4] utilizationCountOverdrawnAfterMission 0
scalar OsgEarthNet.uav[4] utilizationCountIdleState 21
scalar OsgEarthNet.uav[4] utilizationFail 0
scalar OsgEarthNet.uav[4] simulationTime 259200
scalar OsgEarthNet.uav[5] utilizationSecMission 40271.219526401
scalar OsgEarthNet.uav[5] utilizationSecMaintenance 17552.743987626
scalar OsgEarthNet.uav[5] utilizationSecCharge 199384.03548597
scalar OsgEarthNet.uav[5] utilizationSecIdle 1992
scalar OsgEarthNet.uav[5] utilizationEnergyMission 195362.7404747
scalar OsgEarthNet.uav[5] utilizationEnergyMaintenance 81928.85383606
scalar OsgEarthNet.uav[5] utilizationEnergyCharge 276021.93847656
scalar OsgEarthNet.uav[5] utilizationEnergyOverdrawMission 0
scalar OsgEarthNet.uav[5] utilizationEnergyOverdrawMaintenance 0
scalar OsgEarthNet.uav[5] utilizationCountMissions 60
scalar OsgEarthNet.uav[5] utilizationCountManeuversMission 1236
scalar OsgEarthNet.uav[5] utilizationCountManeuversMaintenance 120
scalar OsgEarthNet.uav[5] utilizationCountChargeState 60
scalar OsgEarthNet.uav[5] utilizationCountOverdrawnAfterMission 0
scalar OsgEarthNet.uav[5] utilizationCountIdleState 14
scalar OsgEarthNet.uav[5] utilizationFail 0
scalar OsgEarthNet.uav[5] simulationTime 259200
scalar OsgEarthNet.uav[6] utilizationSecMission 460
scalar OsgEarthNet.uav[6] utilizationSecMaintenance 447.1303002674
scalar OsgEarthNet.uav[6] utilizationSecCharge 3540
scalar OsgEarthNet.uav[6] utilizationSecIdle 254752.86869973
scalar OsgEarthNet.uav[6] utilizationEnergyMission 2889.2718658447
scalar OsgEarthNet.uav[6] utilizationEnergyMaintenance 2057.7942008972
scalar OsgEarthNet.uav[6] utilizationEnergyCharge 4529.0952148438
scalar OsgEarthNet.uav[6] utilizationEnergyOverdrawMission 0
scalar OsgEarthNet.uav[6] utilizationEnergyOverdrawMaintenance 0
scalar OsgEarthNet.uav[6] utilizationCountMissions 1
scalar OsgEarthNet.uav[6] utilizationCountManeuversMission 23
scalar OsgEarthNet.uav[6] utilizationCountManeuversMaintenance 2
scalar OsgEarthNet.uav[6] utilizationCountChargeState 1
scalar OsgEarthNet.uav[6] utilizationCountOverdrawnAfterMission 0
scalar OsgEarthNet.uav[6] utilizationCountIdleState 2
scalar OsgEarthNet.uav[6] utilizationFail 0
scalar OsgEarthNet.uav[6] simulationTime 259200
scalar OsgEarthNet.uav[7] utilizationSecMission 9711.9981258772
scalar OsgEarthNet.uav[7] utilizationSecMaintenance 6748.258242179
scalar OsgEarthNet.uav[7] utilizationSecCharge 63280
scalar OsgEarthNet.uav[7] utilizationSecIdle 179459.74263194
scalar OsgEarthNet.uav[7] utilizationEnergyMission 47693.33039093
scalar OsgEarthNet.uav[7] utilizationEnergyMaintenance 31754.035068512
scalar OsgEarthNet.uav[7] utilizationEnergyCharge 79644.638916016
scalar OsgEarthNet.uav[7] utilizationEnergyOverdrawMission 0
scalar OsgEarthNet.uav[7] utilizationEnergyOverdrawMaintenance 0
scalar OsgEarthNet.uav[7] utilizationCountMissions 19
scalar OsgEarthNet.uav[7] utilizationCountManeuversMission 374
scalar OsgEarthNet.uav[7] utilizationCountManeuversMaintenance 38
scalar OsgEarthNet.uav[7] utilizationCountChargeState 19
scalar OsgEarthNet.uav[7] utilizationCountOverdrawnAfterMission 0
scalar OsgEarthNet.uav[7] utilizationCountIdleState 20
scalar OsgEarthNet.uav[7] utilizationFail 0
scalar OsgEarthNet.uav[7] simulationTime 259200
scalar OsgEarthNet.uav[8] utilizationSecMission 38561.71241639
scalar OsgEarthNet.uav[8] utilizationSecMaintenance 18570.529734733
scalar OsgEarthNet.uav[8] utilizationSecCharge 196963.45647715
scalar OsgEarthNet.uav[8] utilizationSecIdle 5104.3003717285
scalar OsgEarthNet.uav[8] utilizationEnergyMission 187618.96951294
scalar OsgEarthNet.uav[8] utilizationEnergyMaintenance 84902.04441452
scalar OsgEarthNet.uav[8] utilizationEnergyCharge 273550.7734375
scalar OsgEarthNet.uav[8] utilizationEnergyOverdrawMission 0
scalar OsgEarthNet.uav[8] utilizationEnergyOverdrawMaintenance 0
scalar OsgEarthNet.uav[8] utilizationCountMissions 60
scalar OsgEarthNet.uav[8] utilizationCountManeuversMission 1340
scalar OsgEarthNet.uav[8] utilizationCountManeuversMaintenance 120
scalar OsgEarthNet.uav[8] utilizationCountChargeState 60
scalar OsgEarthNet.uav[8] utilizationCountOverdrawnAfterMission 0
scalar OsgEarthNet.uav[8] utilizationCountIdleState 12
scalar OsgEarthNet.uav[8] utilizationFail 0
scalar OsgEarthNet.uav[8] simulationTime 259200
scalar OsgEarthNet.uav[9] utilizationSecMission 420
scalar OsgEarthNet.uav[9] utilizationSecMaintenance 447.1303002674
scalar OsgEarthNet.uav[9] utilizationSecCharge 3510
scalar OsgEarthNet.uav[9] utilizationSecIdle 254822.86869973
scalar OsgEarthNet.uav[9] utilizationEnergyMission 2202.8443145752
scalar OsgEarthNet.uav[9] utilizationEnergyMaintenance 2111.7569694519
scalar OsgEarthNet.uav[9] utilizationEnergyCharge 4589.591796875
scalar OsgEarthNet.uav[9] utilizationEnergyOverdrawMission 0
scalar OsgEarthNet.uav[9] utilizationEnergyOverdrawMaintenance 0
scalar OsgEarthNet.uav[9] utilizationCountMissions 1
scalar OsgEarthNet.uav[9] utilizationCountManeuversMission 21
scalar OsgEarthNet.uav[9] utilizationCountManeuversMaintenance 2
scalar OsgEarthNet.uav[9] utilizationCountChargeState 1
scalar OsgEarthNet.uav[9] utilizationCountOverdrawnAfterMission 0
scalar OsgEarthNet.uav[9] utilizationCountIdleState 2
scalar OsgEarthNet.uav[9] utilizationFail 0
scalar OsgEarthNet.uav[9] simulationTime 259200
scalar OsgEarthNet.uav[10] utilizationSecMission 460
scalar OsgEarthNet.uav[10] utilizationSecMaintenance 447.1303002674
scalar OsgEarthNet.uav[10] utilizationSecCharge 3510
scalar OsgEarthNet.uav[10] utilizationSecIdle 254782.86869973
scalar OsgEarthNet.uav[10] utilizationEnergyMission 2309.3413009644
scalar OsgEarthNet.uav[10] utilizationEnergyMaintenance 2228.6916007996
scalar OsgEarthNet.uav[10] utilizationEnergyCharge 4556.2333984375
scalar OsgEarthNet.uav[10] utilizationEnergyOverdrawMission 0
scalar OsgEarthNet.uav[10] utilizationEnergyOverdrawMaintenance 0
scalar OsgEarthNet.uav[10] utilizationCountMissions 1
scalar OsgEarthNet.uav[10] utilizationCountManeuversMission 23
scalar OsgEarthNet.uav[10] utilizationCountManeuversMaintenance 2
scalar OsgEarthNet.uav[10] utilizationCountChargeState 1
scalar OsgEarthNet.uav[10] utilizationCountOverdrawnAfterMission 0
scalar OsgEarthNet.uav[10] utilizationCountIdleState 2
scalar OsgEarthNet.uav[10] utilizationFail 0
scalar OsgEarthNet.uav[10] simulationTime 259200
scalar OsgEarthNet.uav[11] utilizationSecMission 8735.508525116
scalar OsgEarthNet.uav[11] utilizationSecMaintenance 6190.8222968963
scalar OsgEarthNet.uav[11] utilizationSecCharge 57590
scalar OsgEarthNet.uav[11] utilizationSecIdle 186683.66817799
scalar OsgEarthNet.uav[11] utilizationEnergyMission 42453.055899357
scalar OsgEarthNet.uav[11] utilizationEnergyMaintenance 29525.911472321
scalar OsgEarthNet.uav[11] utilizationEnergyCharge 71121.264892578
scalar OsgEarthNet.uav[11] utilizationEnergyOverdrawMission 0
scalar OsgEarthNet.uav[11] utilizationEnergyOverdrawMaintenance 0
scalar OsgEarthNet.uav[11] utilizationCountMissions 18
scalar OsgEarthNet.uav[11] utilizationCountManeuversMission 286
scalar OsgEarthNet.uav[11] utilizationCountManeuversMaintenance 37
scalar OsgEarthNet.uav[11] utilizationCountChargeState 18
scalar OsgEarthNet.uav[11] utilizationCountOverdrawnAfterMission 0
scalar OsgEarthNet.uav[11] utilizationCountIdleState 19
scalar OsgEarthNet.uav[11] utilizationFail 0
scalar OsgEarthNet.uav[11] simulationTime 259200
scalar OsgEarthNet.uav[12] utilizationSecMission 40799.222126104
scalar OsgEarthNet.uav[12] utilizationSecMaintenance 16421.670364845
scalar OsgEarthNet.uav[12] utilizationSecCharge 195073.35782885
scalar OsgEarthNet.uav[12] utilizationSecIdle 6905.7486801979
scalar OsgEarthNet.uav[12] utilizationEnergyMission 194155.9887886
scalar OsgEarthNet.uav[12] utilizationEnergyMaintenance 74946.05632019
scalar OsgEarthNet.uav[12] utilizationEnergyCharge 268471.984375
scalar OsgEarthNet.uav[12] utilizationEnergyOverdrawMission 0
scalar OsgEarthNet.uav[12] utilizationEnergyOverdrawMaintenance 0
scalar OsgEarthNet.uav[12] utilizationCountMissions 59
scalar OsgEarthNet.uav[12] utilizationCountManeuversMission 1163
scalar OsgEarthNet.uav[12] utilizationCountManeuversMaintenance 118
scalar OsgEarthNet.uav[12] utilizationCountChargeState 59
scalar OsgEarthNet.uav[12] utilizationCountOverdrawnAfterMission 0
scalar OsgEarthNet.uav[12] utilizationCountIdleState 18
scalar OsgEarthNet.uav[12] utilizationFail 0
scalar OsgEarthNet.uav[12] simulationTime 259200
scalar OsgEarthNet.uav[13] utilizationSecMission 460
scalar OsgEarthNet.uav[13] utilizationSecMaintenance 447.1303002674
scalar OsgEarthNet.uav[13] utilizationSecCharge 3450
scalar OsgEarthNet.uav[13] utilizationSecIdle 254842.86869973
scalar OsgEarthNet.uav[13] utilizationEnergyMission 2252.2889328003
scalar OsgEarthNet.uav[13] utilizationEnergyMaintenance 2056.688243866
scalar OsgEarthNet.uav[13] utilizationEnergyCharge 4418.16015625
scalar OsgEarthNet.uav[13] utilizationEnergyOverdrawMission 0
scalar OsgEarthNet.uav[13] utilizationEnergyOverdrawMaintenance 0
scalar OsgEarthNet.uav[13] utilizationCountMissions 1
scalar OsgEarthNet.uav[13] utilizationCountManeuversMission 23
scalar OsgEarthNet.uav[13] utilizationCountManeuversMaintenance 2
scalar OsgEarthNet.uav[13] utilizationCountChargeState 1
scalar OsgEarthNet.uav[13] utilizationCountOverdrawnAfterMission 0
scalar OsgEarthNet.uav[13] utilizationCountIdleState 2
scalar OsgEarthNet.uav[13] utilizationFail 0
scalar OsgEarthNet.uav[13] simulationTime 259200
scalar OsgEarthNet.uav[14] utilizationSecMission 10075.152757244
scalar OsgEarthNet.uav[14] utilizationSecMaintenance 7103.5061993448
scalar OsgEarthNet.uav[14] utilizationSecCharge 67370
scalar OsgEarthNet.uav[14] utilizationSecIdle 174651.34004341
scalar OsgEarthNet.uav[14] utilizationEnergyMission 50305.631874084
scalar OsgEarthNet.uav[14] utilizationEnergyMaintenance 34262.075294495
scalar OsgEarthNet.uav[14] utilizationEnergyCharge 83444.423828125
scalar OsgEarthNet.uav[14] utilizationEnergyOverdrawMission 0
scalar OsgEarthNet.uav[14] utilizationEnergyOverdrawMaintenance 0
scalar OsgEarthNet.uav[14] utilizationCountMissions 21
scalar OsgEarthNet.uav[14] utilizationCountManeuversMission 347
scalar OsgEarthNet.uav[14] utilizationCountManeuversMaintenance 42
scalar OsgEarthNet.uav[14] utilizationCountChargeState 21
scalar OsgEarthNet.uav[14] utilizationCountOverdrawnAfterMission 0
scalar OsgEarthNet.uav[14] utilizationCountIdleState 22
scalar OsgEarthNet.uav[14] utilizationFail 0
scalar OsgEarthNet.uav[14] simulationTime 259200
scalar OsgEarthNet.uav[15] utilizationSecMission 42005.745723133
scalar OsgEarthNet.uav[15] utilizationSecMaintenance 15613.243316331
scalar OsgEarthNet.uav[15] utilizationSecCharge 197031.58461325
scalar OsgEarthNet.uav[15] utilizationSecIdle 4549.4253472904
scalar OsgEarthNet.uav[15] utilizationEnergyMission 203163.41526794
scalar OsgEarthNet.uav[15] utilizationEnergyMaintenance 71697.615421295
scalar OsgEarthNet.uav[15] utilizationEnergyCharge 271457.26660156
scalar OsgEarthNet.uav[15] utilizationEnergyOverdrawMission 0
scalar OsgEarthNet.uav[15] utilizationEnergyOverdrawMaintenance 0
scalar OsgEarthNet.uav[15] utilizationCountMissions 59
scalar OsgEarthNet.uav[15] utilizationCountManeuversMission 1138
scalar OsgEarthNet.uav[15] utilizationCountManeuversMaintenance 118
scalar OsgEarthNet.uav[15] utilizationCountChargeState 59
scalar OsgEarthNet.uav[15] utilizationCountOverdrawnAfterMission 0
scalar OsgEarthNet.uav[15] utilizationCountIdleState 24
scalar OsgEarthNet.uav[15] utilizationFail 0
scalar OsgEarthNet.uav[15] simulationTime 259200
scalar OsgEarthNet.uav[16] utilizationSecMission 760.62515258028
scalar OsgEarthNet.uav[16] utilizationSecMaintenance 280.27216773088
scalar OsgEarthNet.uav[16] utilizationSecCharge 3640
scalar OsgEarthNet.uav[16] utilizationSecIdle 254519.10167969
scalar OsgEarthNet.uav[16] utilizationEnergyMission 3408.4732208252
scalar OsgEarthNet.uav[16] utilizationEnergyMaintenance 1373.8091545105
scalar OsgEarthNet.uav[16] utilizationEnergyCharge 4782.2861328125
scalar OsgEarthNet.uav[16] utilizationEnergyOverdrawMission 0
scalar OsgEarthNet.uav[16] utilizationEnergyOverdrawMaintenance 0
scalar OsgEarthNet.uav[16] utilizationCountMissions 1
scalar OsgEarthNet.uav[16] utilizationCountManeuversMission 12
scalar OsgEarthNet.uav[16] utilizationCountManeuversMaintenance 2
scalar OsgEarthNet.uav[16] utilizationCountChargeState 1
scalar OsgEarthNet.uav[16] utilizationCountOverdrawnAfterMission 0
scalar OsgEarthNet.uav[16] utilizationCountIdleState 2
scalar OsgEarthNet.uav[16] utilizationFail 0
scalar OsgEarthNet.uav[16] simulationTime 259200
scalar OsgEarthNet.uav[17] utilizationSecMission 9269.2570942364
scalar OsgEarthNet.uav[17] utilizationSecMaintenance 6911.8428815985
scalar OsgEarthNet.uav[17] utilizationSecCharge 63890
scalar OsgEarthNet.uav[17] utilizationSecIdle 179128.89902417
scalar OsgEarthNet.uav[17] utilizationEnergyMission 46966.924690247
scalar OsgEarthNet.uav[17] utilizationEnergyMaintenance 32983.283798218
scalar OsgEarthNet.uav[17] utilizationEnergyCharge 78971.737060547
scalar OsgEarthNet.uav[17] utilizationEnergyOverdrawMission 0
scalar OsgEarthNet.uav[17] utilizationEnergyOverdrawMaintenance 0
scalar OsgEarthNet.uav[17] utilizationCountMissions 20
scalar OsgEarthNet.uav[17] utilizationCountManeuversMission 351
scalar OsgEarthNet.uav[17] utilizationCountManeuversMaintenance 40
scalar OsgEarthNet.uav[17] utilizationCountChargeState 20
scalar OsgEarthNet.uav[17] utilizationCountOverdrawnAfterMission 0
scalar OsgEarthNet.uav[17] utilizationCountIdleState 21
scalar OsgEarthNet.uav[17] utilizationFail 0
scalar OsgEarthNet.uav[17] simulationTime 259200
scalar OsgEarthNet.uav[18] utilizationSecMission 40546.395389715
scalar OsgEarthNet.uav[18] utilizationSecMaintenance 17515.030027993
scalar OsgEarthNet.uav[18] utilizationSecCharge 197160
scalar OsgEarthNet.uav[18] utilizationSecIdle 3978.5735822918
scalar OsgEarthNet.uav[18] utilizationEnergyMission 197004.18298721
scalar OsgEarthNet.uav[18] utilizationEnergyMaintenance 80556.097550444
scalar OsgEarthNet.uav[18] utilizationEnergyCharge 273517.74462891
scalar OsgEarthNet.uav[18] utilizationEnergyOverdrawMission 0
scalar OsgEarthNet.uav[18] utilizationEnergyOverdrawMaintenance 0
scalar OsgEarthNet.uav[18] utilizationCountMissions 59
scalar OsgEarthNet.uav[18] utilizationCountManeuversMission 1294
scalar OsgEarthNet.uav[18] utilizationCountManeuversMaintenance 119
scalar OsgEarthNet.uav[18] utilizationCountChargeState 59
scalar OsgEarthNet.uav[18] utilizationCountOverdrawnAfterMission 0
scalar OsgEarthNet.uav[18] utilizationCountIdleState 15
scalar OsgEarthNet.uav[18] utilizationFail 0
scalar OsgEarthNet.uav[18] simulationTime 259200
scalar OsgEarthNet.uav[19] utilizationSecMission 1320
scalar OsgEarthNet.uav[19] utilizationSecMaintenance 1341.9937539667
scalar OsgEarthNet.uav[19] utilizationSecCharge 10450
scalar OsgEarthNet.uav[19] utilizationSecIdle 246088.00524603
scalar OsgEarthNet.uav[19] utilizationEnergyMission 6897.684223175
scalar OsgEarthNet.uav[19] utilizationEnergyMaintenance 6343.6957740783
scalar OsgEarthNet.uav[19] utilizationEnergyCharge 13270.254882812
scalar OsgEarthNet.uav[19] utilizationEnergyOverdrawMission 0
scalar OsgEarthNet.uav[19] utilizationEnergyOverdrawMaintenance 0
scalar OsgEarthNet.uav[19] utilizationCountMissions 3
scalar OsgEarthNet.uav[19] utilizationCountManeuversMission 66
scalar OsgEarthNet.uav[19] utilizationCountManeuversMaintenance 6
scalar OsgEarthNet.uav[19] utilizationCountChargeState 3
scalar OsgEarthNet.uav[19] utilizationCountOverdrawnAfterMission 0
scalar OsgEarthNet.uav[19] utilizationCountIdleState 4
scalar OsgEarthNet.uav[19] utilizationFail 0
scalar OsgEarthNet.uav[19] simulationTime 259200
scalar OsgEarthNet.uav[20] utilizationSecMission 8634.4391430316
scalar OsgEarthNet.uav[20] utilizationSecMaintenance 6166.8799021998
scalar OsgEarthNet.uav[20] utilizationSecCharge 56130
scalar OsgEarthNet.uav[20] utilizationSecIdle 188268.67995477
scalar OsgEarthNet.uav[20] utilizationEnergyMission 42300.167053223
scalar OsgEarthNet.uav[20] utilizationEnergyMaintenance 29471.40423584
scalar OsgEarthNet.uav[20] utilizationEnergyCharge 71981.775878906
scalar OsgEarthNet.uav[20] utilizationEnergyOverdrawMission 0
scalar OsgEarthNet.uav[20] utilizationEnergyOverdrawMaintenance 0
scalar OsgEarthNet.uav[20] utilizationCountMissions 16
scalar OsgEarthNet.uav[20] utilizationCountManeuversMission 308
scalar OsgEarthNet.uav[20] utilizationCountManeuversMaintenance 32
scalar OsgEarthNet.uav[20] utilizationCountChargeState 16
scalar OsgEarthNet.uav[20] utilizationCountOverdrawnAfterMission 0
scalar OsgEarthNet.uav[20] utilizationCountIdleState 17
scalar OsgEarthNet.uav[20] utilizationFail 0
scalar OsgEarthNet.uav[20] simulationTime 259200
scalar OsgEarthNet.uav[21] utilizationSecMission 17999.835018346
scalar OsgEarthNet.uav[21] utilizationSecMaintenance 12139.93119884
scalar OsgEarthNet.uav[21] utilizationSecCharge 114848.23278281
scalar OsgEarthNet.uav[21] utilizationSecIdle 114212
scalar OsgEarthNet.uav[21] utilizationEnergyMission 86737.855144501
scalar OsgEarthNet.uav[21] utilizationEnergyMaintenance 58001.636959076
scalar OsgEarthNet.uav[21] utilizationEnergyCharge 141580.92553711
scalar OsgEarthNet.uav[21] utilizationEnergyOverdrawMission 0
scalar OsgEarthNet.uav[21] utilizationEnergyOverdrawMaintenance 0
scalar OsgEarthNet.uav[21] utilizationCountMissions 37
scalar OsgEarthNet.uav[21] utilizationCountManeuversMission 569
scalar OsgEarthNet.uav[21] utilizationCountManeuversMaintenance 73
scalar OsgEarthNet.uav[21] utilizationCountChargeState 37
scalar OsgEarthNet.uav[21] utilizationCountOverdrawnAfterMission 0
scalar OsgEarthNet.uav[21] utilizationCountIdleState 37
scalar OsgEarthNet.uav[21] utilizationFail 0
scalar OsgEarthNet.uav[21] simulationTime 259200
scalar OsgEarthNet.uav[22] utilizationSecMission 25096.676924687
scalar OsgEarthNet.uav[22] utilizationSecMaintenance 11870.282503663
scalar OsgEarthNet.uav[22] utilizationSecCharge 132490
scalar OsgEarthNet.uav[22] utilizationSecIdle 89743.03957165
scalar OsgEarthNet.uav[22] utilizationEnergyMission 119802.4537468
scalar OsgEarthNet.uav[22] utilizationEnergyMaintenance 55488.191864014
scalar OsgEarthNet.uav[22] utilizationEnergyCharge 175026.02783203
scalar OsgEarthNet.uav[22] utilizationEnergyOverdrawMission 0
scalar OsgEarthNet.uav[22] utilizationEnergyOverdrawMaintenance 0
scalar OsgEarthNet.uav[22] utilizationCountMissions 40
scalar OsgEarthNet.uav[22] utilizationCountManeuversMission 682
scalar OsgEarthNet.uav[22] utilizationCountManeuversMaintenance 80
scalar OsgEarthNet.uav[22] utilizationCountChargeState 40
scalar OsgEarthNet.uav[22] utilizationCountOverdrawnAfterMission 0
scalar OsgEarthNet.uav[22] utilizationCountIdleState 29
scalar OsgEarthNet.uav[22] utilizationFail 0
scalar OsgEarthNet.uav[22] simulationTime 259200
scalar OsgEarthNet.uav[23] utilizationSecMission 8604.376068062
scalar OsgEarthNet.uav[23] utilizationSecMaintenance 4746.1260982272
scalar OsgEarthNet.uav[23] utilizationSecCharge 49380
scalar OsgEarthNet.uav[23] utilizationSecIdle 196469.49683371
scalar OsgEarthNet.uav[23] utilizationEnergyMission 40941.866722107
scalar OsgEarthNet.uav[23] utilizationEnergyMaintenance 22649.898323059
scalar OsgEarthNet.uav[23] utilizationEnergyCharge 63777.637207031
scalar OsgEarthNet.uav[23] utilizationEnergyOverdrawMission 0
scalar OsgEarthNet.uav[23] utilizationEnergyOverdrawMaintenance 0
scalar OsgEarthNet.uav[23] utilizationCountMissions 14
scalar OsgEarthNet.uav[23] utilizationCountManeuversMission 248
scalar OsgEarthNet.uav[23] utilizationCountManeuversMaintenance 28
scalar OsgEarthNet.uav[23] utilizationCountChargeState 14
scalar OsgEarthNet.uav[23] utilizationCountOverdrawnAfterMission 0
scalar OsgEarthNet.uav[23] utilizationCountIdleState 15
scalar OsgEarthNet.uav[23] utilizationFail 0
scalar OsgEarthNet.uav[23] simulationTime 259200
scalar OsgEarthNet.uav[24] utilizationSecMission 16747.357682984
scalar OsgEarthNet.uav[24] utilizationSecMaintenance 11921.71261041
scalar OsgEarthNet.uav[24] utilizationSecCharge 110698.92670661
scalar OsgEarthNet.uav[24] utilizationSecIdle 119832.002
scalar OsgEarthNet.uav[24] utilizationEnergyMission 82233.069114685
scalar OsgEarthNet.uav[24] utilizationEnergyMaintenance 56094.988510132
scalar OsgEarthNet.uav[24] utilizationEnergyCharge 135979.17041016
scalar OsgEarthNet.uav[24] utilizationEnergyOverdrawMission 0
scalar OsgEarthNet.uav[24] utilizationEnergyOverdrawMaintenance 0
scalar OsgEarthNet.uav[24] utilizationCountMissions 36
scalar OsgEarthNet.uav[24] utilizationCountManeuversMission 546
scalar OsgEarthNet.uav[24] utilizationCountManeuversMaintenance 72
scalar OsgEarthNet.uav[24] utilizationCountChargeState 36
scalar OsgEarthNet.uav[24] utilizationCountOverdrawnAfterMission 0
scalar OsgEarthNet.uav[24] utilizationCountIdleState 36
scalar OsgEarthNet.uav[24] utilizationFail 0
scalar OsgEarthNet.uav[24] simulationTime 259200
scalar OsgEarthNet.uav[25] utilizationSecMission 41338.488508655
scalar OsgEarthNet.uav[25] utilizationSecMaintenance 16509.508491345
scalar OsgEarthNet.uav[25] utilizationSecCharge 198310
scalar OsgEarthNet.uav[25] utilizationSecIdle 3042.002
scalar OsgEarthNet.uav[25] utilizationEnergyMission 197891.07231903
scalar OsgEarthNet.uav[25] utilizationEnergyMaintenance 76110.724094391
scalar OsgEarthNet.uav[25] utilizationEnergyCharge 273736.57617188
scalar OsgEarthNet.uav[25] utilizationEnergyOverdrawMission 0
scalar OsgEarthNet.uav[25] utilizationEnergyOverdrawMaintenance 0
scalar OsgEarthNet.uav[25] utilizationCountMissions 59
scalar OsgEarthNet.uav[25] utilizationCountManeuversMission 1065
scalar OsgEarthNet.uav[25] utilizationCountManeuversMaintenance 119
scalar OsgEarthNet.uav[25] utilizationCountChargeState 59
scalar OsgEarthNet.uav[25] utilizationCountOverdrawnAfterMission 0
scalar OsgEarthNet.uav[25] utilizationCountIdleState 17
scalar OsgEarthNet.uav[25] utilizationFail 0
scalar OsgEarthNet.uav[25] simulationTime 259200
scalar OsgEarthNet.uav[26] utilizationSecMission 5822.5006103211
scalar OsgEarthNet.uav[26] utilizationSecMaintenance 3631.7884812071
scalar OsgEarthNet.uav[26] utilizationSecCharge 35280
scalar OsgEarthNet.uav[26] utilizationSecIdle 214465.70990847
scalar OsgEarthNet.uav[26] utilizationEnergyMission 28446.993480682
scalar OsgEarthNet.uav[26] utilizationEnergyMaintenance 17182.53502655
scalar OsgEarthNet.uav[26] utilizationEnergyCharge 45760.898925781
scalar OsgEarthNet.uav[26] utilizationEnergyOverdrawMission 0
scalar OsgEarthNet.uav[26] utilizationEnergyOverdrawMaintenance 0
scalar OsgEarthNet.uav[26] utilizationCountMissions 10
scalar OsgEarthNet.uav[26] utilizationCountManeuversMission 187
scalar OsgEarthNet.uav[26] utilizationCountManeuversMaintenance 20
scalar OsgEarthNet.uav[26] utilizationCountChargeState 10
scalar OsgEarthNet.uav[26] utilizationCountOverdrawnAfterMission 0
scalar OsgEarthNet.uav[26] utilizationCountIdleState 11
scalar OsgEarthNet.uav[26] utilizationFail 0
scalar OsgEarthNet.uav[26] simulationTime 259200
scalar OsgEarthNet.uav[27] utilizationSecMission 15030.800784996
scalar OsgEarthNet.uav[27] utilizationSecMaintenance 10367.190215004
scalar OsgEarthNet.uav[27] utilizationSecCharge 96470
scalar OsgEarthNet.uav[27] utilizationSecIdle 137332.008
scalar OsgEarthNet.uav[27] utilizationEnergyMission 74589.183044434
scalar OsgEarthNet.uav[27] utilizationEnergyMaintenance 48763.939613113
scalar OsgEarthNet.uav[27] utilizationEnergyCharge 119562.41772461
scalar OsgEarthNet.uav[27] utilizationEnergyOverdrawMission 0
scalar OsgEarthNet.uav[27] utilizationEnergyOverdrawMaintenance 0
scalar OsgEarthNet.uav[27] utilizationCountMissions 31
scalar OsgEarthNet.uav[27] utilizationCountManeuversMission 513
scalar OsgEarthNet.uav[27] utilizationCountManeuversMaintenance 62
scalar OsgEarthNet.uav[27] utilizationCountChargeState 30
scalar OsgEarthNet.uav[27] utilizationCountOverdrawnAfterMission 0
scalar OsgEarthNet.uav[27] utilizationCountIdleState 31
scalar OsgEarthNet.uav[27] utilizationFail 0
scalar OsgEarthNet.uav[27] simulationTime 259200
scalar OsgEarthNet.uav[28] utilizationSecMission 41411.463585604
scalar OsgEarthNet.uav[28] utilizationSecMaintenance 16264.265716848
scalar OsgEarthNet.uav[28] utilizationSecCharge 197219.77175637
scalar OsgEarthNet.uav[28] utilizationSecIdle 4304.4979411756
scalar OsgEarthNet.uav[28] utilizationEnergyMission 198435.36712265
scalar OsgEarthNet.uav[28] utilizationEnergyMaintenance 75027.59765625
scalar OsgEarthNet.uav[28] utilizationEnergyCharge 272332.02514648
scalar OsgEarthNet.uav[28] utilizationEnergyOverdrawMission 0
scalar OsgEarthNet.uav[28] utilizationEnergyOverdrawMaintenance 0
scalar OsgEarthNet.uav[28] utilizationCountMissions 59
scalar OsgEarthNet.uav[28] utilizationCountManeuversMission 1175
scalar OsgEarthNet.uav[28] utilizationCountManeuversMaintenance 118
scalar OsgEarthNet.uav[28] utilizationCountChargeState 59
scalar OsgEarthNet.uav[28] utilizationCountOverdrawnAfterMission 0
scalar OsgEarthNet.uav[28] utilizationCountIdleState 22
scalar OsgEarthNet.uav[28] utilizationFail 0
scalar OsgEarthNet.uav[28] simulationTime 259200
scalar OsgEarthNet.uav[29] utilizationSecMission 12854.743181892
scalar OsgEarthNet.uav[29] utilizationSecMaintenance 8464.4908009497
scalar OsgEarthNet.uav[29] utilizationSecCharge 80300
scalar OsgEarthNet.uav[29] utilizationSecIdle 157580.76501716
scalar OsgEarthNet.uav[29] utilizationEnergyMission 61383.893089294
scalar OsgEarthNet.uav[29] utilizationEnergyMaintenance 40273.932575226
scalar OsgEarthNet.uav[29] utilizationEnergyCharge 103152.01025391
scalar OsgEarthNet.uav[29] utilizationEnergyOverdrawMission 0
scalar OsgEarthNet.uav[29] utilizationEnergyOverdrawMaintenance 0
scalar OsgEarthNet.uav[29] utilizationCountMissions 23
scalar OsgEarthNet.uav[29] utilizationCountManeuversMission 439
scalar OsgEarthNet.uav[29] utilizationCountManeuversMaintenance 46
scalar OsgEarthNet.uav[29] utilizationCountChargeState 23
scalar OsgEarthNet.uav[29] utilizationCountOverdrawnAfterMission 0
scalar OsgEarthNet.uav[29] utilizationCountIdleState 24
scalar OsgEarthNet.uav[29] utilizationFail 0
scalar OsgEarthNet.uav[29] simulationTime 259200
scalar OsgEarthNet.uav[30] utilizationSecMission 12284.376068062
scalar OsgEarthNet.uav[30] utilizationSecMaintenance 8500.3145569626
scalar OsgEarthNet.uav[30] utilizationSecCharge 77560
scalar OsgEarthNet.uav[30] utilizationSecIdle 160855.30837498
scalar OsgEarthNet.uav[30] utilizationEnergyMission 60957.19537735
scalar OsgEarthNet.uav[30] utilizationEnergyMaintenance 40024.920783996
scalar OsgEarthNet.uav[30] utilizationEnergyCharge 99729.356933594
scalar OsgEarthNet.uav[30] utilizationEnergyOverdrawMission 0
scalar OsgEarthNet.uav[30] utilizationEnergyOverdrawMaintenance 0
scalar OsgEarthNet.uav[30] utilizationCountMissions 22
scalar OsgEarthNet.uav[30] utilizationCountManeuversMission 432
scalar OsgEarthNet.uav[30] utilizationCountManeuversMaintenance 44
scalar OsgEarthNet.uav[30] utilizationCountChargeState 22
scalar OsgEarthNet.uav[30] utilizationCountOverdrawnAfterMission 0
scalar OsgEarthNet.uav[30] utilizationCountIdleState 23
scalar OsgEarthNet.uav[30] utilizationFail 0
scalar OsgEarthNet.uav[30] simulationTime 259200
scalar OsgEarthNet.uav[31] utilizationSecMission 34071.457581937
scalar OsgEarthNet.uav[31] utilizationSecMaintenance 16366.179286757
scalar OsgEarthNet.uav[31] utilizationSecCharge 176275.989761
scalar OsgEarthNet.uav[31] utilizationSecIdle 32486.372370302
scalar OsgEarthNet.uav[31] utilizationEnergyMission 163317.58834076
scalar OsgEarthNet.uav[31] utilizationEnergyMaintenance 77271.415454864
scalar OsgEarthNet.uav[31] utilizationEnergyCharge 236091.49584961
scalar OsgEarthNet.uav[31] utilizationEnergyOverdrawMission 0
scalar OsgEarthNet.uav[31] utilizationEnergyOverdrawMaintenance 0
scalar OsgEarthNet.uav[31] utilizationCountMissions 54
scalar OsgEarthNet.uav[31] utilizationCountManeuversMission 990
scalar OsgEarthNet.uav[31] utilizationCountManeuversMaintenance 108
scalar OsgEarthNet.uav[31] utilizationCountChargeState 54
scalar OsgEarthNet.uav[31] utilizationCountOverdrawnAfterMission 0
scalar OsgEarthNet.uav[31] utilizationCountIdleState 27
scalar OsgEarthNet.uav[31] utilizationFail 0
scalar OsgEarthNet.uav[31] simulationTime 259200
scalar OsgEarthNet.uav[32] utilizationSecMission 40617.462124865
scalar OsgEarthNet.uav[32] utilizationSecMaintenance 17471.356098143
scalar OsgEarthNet.uav[32] utilizationSecCharge 196217.08613114
scalar OsgEarthNet.uav[32] utilizationSecIdle 4894.0946458526
scalar OsgEarthNet.uav[32] utilizationEnergyMission 195016.6824646
scalar OsgEarthNet.uav[32] utilizationEnergyMaintenance 81247.972618103
scalar OsgEarthNet.uav[32] utilizationEnergyCharge 272841.03997803
scalar OsgEarthNet.uav[32] utilizationEnergyOverdrawMission 0
scalar OsgEarthNet.uav[32] utilizationEnergyOverdrawMaintenance 0
scalar OsgEarthNet.uav[32] utilizationCountMissions 60
scalar OsgEarthNet.uav[32] utilizationCountManeuversMission 1213
scalar OsgEarthNet.uav[32] utilizationCountManeuversMaintenance 120
scalar OsgEarthNet.uav[32] utilizationCountChargeState 60
scalar OsgEarthNet.uav[32] utilizationCountOverdrawnAfterMission 0
scalar OsgEarthNet.uav[32] utilizationCountIdleState 16
scalar OsgEarthNet.uav[32] utilizationFail 0
scalar OsgEarthNet.uav[32] simulationTime 259200
scalar OsgEarthNet.uav[33] utilizationSecMission 12074.008954232
scalar OsgEarthNet.uav[33] utilizationSecMaintenance 8459.3661080109
scalar OsgEarthNet.uav[33] utilizationSecCharge 77630
scalar OsgEarthNet.uav[33] utilizationSecIdle 161036.62393776
scalar OsgEarthNet.uav[33] utilizationEnergyMission 59911.366943359
scalar OsgEarthNet.uav[33] utilizationEnergyMaintenance 40502.365516662
scalar OsgEarthNet.uav[33] utilizationEnergyCharge 100022.42382812
scalar OsgEarthNet.uav[33] utilizationEnergyOverdrawMission 0
scalar OsgEarthNet.uav[33] utilizationEnergyOverdrawMaintenance 0
scalar OsgEarthNet.uav[33] utilizationCountMissions 22
scalar OsgEarthNet.uav[33] utilizationCountManeuversMission 443
scalar OsgEarthNet.uav[33] utilizationCountManeuversMaintenance 44
scalar OsgEarthNet.uav[33] utilizationCountChargeState 22
scalar OsgEarthNet.uav[33] utilizationCountOverdrawnAfterMission 0
scalar OsgEarthNet.uav[33] utilizationCountIdleState 23
scalar OsgEarthNet.uav[33] utilizationFail 0
scalar OsgEarthNet.uav[33] simulationTime 259200
scalar OsgEarthNet.uav[34] utilizationSecMission 16217.398518375
scalar OsgEarthNet.uav[34] utilizationSecMaintenance 11010.976382678
scalar OsgEarthNet.uav[34] utilizationSecCharge 104770
scalar OsgEarthNet.uav[34] utilizationSecIdle 127201.62409895
scalar OsgEarthNet.uav[34] utilizationEnergyMission 79513.969642639
scalar OsgEarthNet.uav[34] utilizationEnergyMaintenance 52783.195068359
scalar OsgEarthNet.uav[34] utilizationEnergyCharge 130976.13452148
scalar OsgEarthNet.uav[34] utilizationEnergyOverdrawMission 0
scalar OsgEarthNet.uav[34] utilizationEnergyOverdrawMaintenance 0
scalar OsgEarthNet.uav[34] utilizationCountMissions 32
scalar OsgEarthNet.uav[34] utilizationCountManeuversMission 580
scalar OsgEarthNet.uav[34] utilizationCountManeuversMaintenance 64
scalar OsgEarthNet.uav[34] utilizationCountChargeState 32
scalar OsgEarthNet.uav[34] utilizationCountOverdrawnAfterMission 0
scalar OsgEarthNet.uav[34] utilizationCountIdleState 33
scalar OsgEarthNet.uav[34] utilizationFail 0
scalar OsgEarthNet.uav[34] simulationTime 259200
scalar OsgEarthNet.uav[35] utilizationSecMission 41762.006943472
scalar OsgEarthNet.uav[35] utilizationSecMaintenance 16275.991056528
scalar OsgEarthNet.uav[35] utilizationSecCharge 198080
scalar OsgEarthNet.uav[35] utilizationSecIdle 3082.001
scalar OsgEarthNet.uav[35] utilizationEnergyMission 199911.46585724
scalar OsgEarthNet.uav[35] utilizationEnergyMaintenance 74763.926776886
scalar OsgEarthNet.uav[35] utilizationEnergyCharge 272859.47167969
scalar OsgEarthNet.uav[35] utilizationEnergyOverdrawMission 0
scalar OsgEarthNet.uav[35] utilizationEnergyOverdrawMaintenance 0
scalar OsgEarthNet.uav[35] utilizationCountMissions 59
scalar OsgEarthNet.uav[35] utilizationCountManeuversMission 1121
scalar OsgEarthNet.uav[35] utilizationCountManeuversMaintenance 119
scalar OsgEarthNet.uav[35] utilizationCountChargeState 59
scalar OsgEarthNet.uav[35] utilizationCountOverdrawnAfterMission 0
scalar OsgEarthNet.uav[35] utilizationCountIdleState 19
scalar OsgEarthNet.uav[35] utilizationFail 0
scalar OsgEarthNet.uav[35] simulationTime 259200
scalar OsgEarthNet.uav[36] utilizationSecMission 18447.501830963
scalar OsgEarthNet.uav[36] utilizationSecMaintenance 11878.138885831
scalar OsgEarthNet.uav[36] utilizationSecCharge 110342.35828321
scalar OsgEarthNet.uav[36] utilizationSecIdle 118532
scalar OsgEarthNet.uav[36] utilizationEnergyMission 87976.593547821
scalar OsgEarthNet.uav[36] utilizationEnergyMaintenance 56715.478027344
scalar OsgEarthNet.uav[36] utilizationEnergyCharge 142763.47021484
scalar OsgEarthNet.uav[36] utilizationEnergyOverdrawMission 0
scalar OsgEarthNet.uav[36] utilizationEnergyOverdrawMaintenance 0
scalar OsgEarthNet.uav[36] utilizationCountMissions 32
scalar OsgEarthNet.uav[36] utilizationCountManeuversMission 610
scalar OsgEarthNet.uav[36] utilizationCountManeuversMaintenance 64
scalar OsgEarthNet.uav[36] utilizationCountChargeState 32
scalar OsgEarthNet.uav[36] utilizationCountOverdrawnAfterMission 0
scalar OsgEarthNet.uav[36] utilizationCountIdleState 32
scalar OsgEarthNet.uav[36] utilizationFail 0
scalar OsgEarthNet.uav[36] simulationTime 259200
scalar OsgEarthNet.uav[37] utilizationSecMission 22538.240138763
scalar OsgEarthNet.uav[37] utilizationSecMaintenance 14680.896118611
scalar OsgEarthNet.uav[37] utilizationSecCharge 143340
scalar OsgEarthNet.uav[37] utilizationSecIdle 78640.862742626
scalar OsgEarthNet.uav[37] utilizationEnergyMission 110405.86899948
scalar OsgEarthNet.uav[37] utilizationEnergyMaintenance 68998.220516205
scalar OsgEarthNet.uav[37] utilizationEnergyCharge 178882.99511719
scalar OsgEarthNet.uav[37] utilizationEnergyOverdrawMission 0
scalar OsgEarthNet.uav[37] utilizationEnergyOverdrawMaintenance 0
scalar OsgEarthNet.uav[37] utilizationCountMissions 44
scalar OsgEarthNet.uav[37] utilizationCountManeuversMission 718
scalar OsgEarthNet.uav[37] utilizationCountManeuversMaintenance 88
scalar OsgEarthNet.uav[37] utilizationCountChargeState 44
scalar OsgEarthNet.uav[37] utilizationCountOverdrawnAfterMission 0
scalar OsgEarthNet.uav[37] utilizationCountIdleState 45
scalar OsgEarthNet.uav[37] utilizationFail 0
scalar OsgEarthNet.uav[37] simulationTime 259200
scalar OsgEarthNet.uav[38] utilizationSecMission 41160.094365563
scalar OsgEarthNet.uav[38] utilizationSecMaintenance 17220.712570655
scalar OsgEarthNet.uav[38] utilizationSecCharge 198067.19206378
scalar OsgEarthNet.uav[38] utilizationSecIdle 2752
scalar OsgEarthNet.uav[38] utilizationEnergyMission 200109.96491581
scalar OsgEarthNet.uav[38] utilizationEnergyMaintenance 79036.794525147
scalar OsgEarthNet.uav[38] utilizationEnergyCharge 275383.63391113
scalar OsgEarthNet.uav[38] utilizationEnergyOverdrawMission 0
scalar OsgEarthNet.uav[38] utilizationEnergyOverdrawMaintenance 0
scalar OsgEarthNet.uav[38] utilizationCountMissions 60
scalar OsgEarthNet.uav[38] utilizationCountManeuversMission 1177
scalar OsgEarthNet.uav[38] utilizationCountManeuversMaintenance 119
scalar OsgEarthNet.uav[38] utilizationCountChargeState 60
scalar OsgEarthNet.uav[38] utilizationCountOverdrawnAfterMission 0
scalar OsgEarthNet.uav[38] utilizationCountIdleState 21
scalar OsgEarthNet.uav[38] utilizationFail 0
scalar OsgEarthNet.uav[38] simulationTime 259200
scalar OsgEarthNet.uav[39] utilizationSecMission 15585.001220642
scalar OsgEarthNet.uav[39] utilizationSecMaintenance 10755.924757409
scalar OsgEarthNet.uav[39] utilizationSecCharge 95537.058021948
scalar OsgEarthNet.uav[39] utilizationSecIdle 137322.015
scalar OsgEarthNet.uav[39] utilizationEnergyMission 76159.817241669
scalar OsgEarthNet.uav[39] utilizationEnergyMaintenance 51322.220809936
scalar OsgEarthNet.uav[39] utilizationEnergyCharge 123218.46984863
scalar OsgEarthNet.uav[39] utilizationEnergyOverdrawMission 0
scalar OsgEarthNet.uav[39] utilizationEnergyOverdrawMaintenance 0
scalar OsgEarthNet.uav[39] utilizationCountMissions 28
scalar OsgEarthNet.uav[39] utilizationCountManeuversMission 571
scalar OsgEarthNet.uav[39] utilizationCountManeuversMaintenance 56
scalar OsgEarthNet.uav[39] utilizationCountChargeState 28
scalar OsgEarthNet.uav[39] utilizationCountOverdrawnAfterMission 0
scalar OsgEarthNet.uav[39] utilizationCountIdleState 28
scalar OsgEarthNet.uav[39] utilizationFail 0
scalar OsgEarthNet.uav[39] simulationTime 259200
scalar OsgEarthNet.uav[40] utilizationSecMission 16378.385022294
scalar OsgEarthNet.uav[40] utilizationSecMaintenance 9441.0301192882
scalar OsgEarthNet.uav[40] utilizationSecCharge 94099.38727015
scalar OsgEarthNet.uav[40] utilizationSecIdle 139281.19658827
scalar OsgEarthNet.uav[40] utilizationEnergyMission 77216.301250458
scalar OsgEarthNet.uav[40] utilizationEnergyMaintenance 44875.543643951
scalar OsgEarthNet.uav[40] utilizationEnergyCharge 122456.11230469
scalar OsgEarthNet.uav[40] utilizationEnergyOverdrawMission 0
scalar OsgEarthNet.uav[40] utilizationEnergyOverdrawMaintenance 0
scalar OsgEarthNet.uav[40] utilizationCountMissions 27
scalar OsgEarthNet.uav[40] utilizationCountManeuversMission 476
scalar OsgEarthNet.uav[40] utilizationCountManeuversMaintenance 54
scalar OsgEarthNet.uav[40] utilizationCountChargeState 27
scalar OsgEarthNet.uav[40] utilizationCountOverdrawnAfterMission 0
scalar OsgEarthNet.uav[40] utilizationCountIdleState 27
scalar OsgEarthNet.uav[40] utilizationFail 0
scalar OsgEarthNet.uav[40] simulationTime 259200
scalar OsgEarthNet.uav[41] utilizationSecMission 20500.057879233
scalar OsgEarthNet.uav[41] utilizationSecMaintenance 14284.084009247
scalar OsgEarthNet.uav[41] utilizationSecCharge 135711.245222
scalar OsgEarthNet.uav[41] utilizationSecIdle 88704.611889516
scalar OsgEarthNet.uav[41] utilizationEnergyMission 98285.82906723
scalar OsgEarthNet.uav[41] utilizationEnergyMaintenance 67456.708511353
scalar OsgEarthNet.uav[41] utilizationEnergyCharge 167422.90673828
scalar OsgEarthNet.uav[41] utilizationEnergyOverdrawMission 0
scalar OsgEarthNet.uav[41] utilizationEnergyOverdrawMaintenance 0
scalar OsgEarthNet.uav[41] utilizationCountMissions 43
scalar OsgEarthNet.uav[41] utilizationCountManeuversMission 674
scalar OsgEarthNet.uav[41] utilizationCountManeuversMaintenance 86
scalar OsgEarthNet.uav[41] utilizationCountChargeState 43
scalar OsgEarthNet.uav[41] utilizationCountOverdrawnAfterMission 0
scalar OsgEarthNet.uav[41] utilizationCountIdleState 43
scalar OsgEarthNet.uav[41] utilizationFail 0
scalar OsgEarthNet.uav[41] simulationTime 259200
scalar OsgEarthNet.uav[42] utilizationSecMission 38899.374470235
scalar OsgEarthNet.uav[42] utilizationSecMaintenance 18586.248027875
scalar OsgEarthNet.uav[42] utilizationSecCharge 197182.37250189
scalar OsgEarthNet.uav[42] utilizationSecIdle 4532.004
scalar OsgEarthNet.uav[42] utilizationEnergyMission 189310.21963501
scalar OsgEarthNet.uav[42] utilizationEnergyMaintenance 85849.628738403
scalar OsgEarthNet.uav[42] utilizationEnergyCharge 274599.52685547
scalar OsgEarthNet.uav[42] utilizationEnergyOverdrawMission 0
scalar OsgEarthNet.uav[42] utilizationEnergyOverdrawMaintenance 0
scalar OsgEarthNet.uav[42] utilizationCountMissions 60
scalar OsgEarthNet.uav[42] utilizationCountManeuversMission 1260
scalar OsgEarthNet.uav[42] utilizationCountManeuversMaintenance 120
scalar OsgEarthNet.uav[42] utilizationCountChargeState 60
scalar OsgEarthNet.uav[42] utilizationCountOverdrawnAfterMission 0
scalar OsgEarthNet.uav[42] utilizationCountIdleState 14
scalar OsgEarthNet.uav[42] utilizationFail 0
scalar OsgEarthNet.uav[42] simulationTime 259200
scalar OsgEarthNet.uav[43] utilizationSecMission 15497.243792213
scalar OsgEarthNet.uav[43] utilizationSecMaintenance 8964.5385585837
scalar OsgEarthNet.uav[43] utilizationSecCharge 91860
scalar OsgEarthNet.uav[43] utilizationSecIdle 142878.2166492
scalar OsgEarthNet.uav[43] utilizationEnergyMission 74789.117137909
scalar OsgEarthNet.uav[43] utilizationEnergyMaintenance 43020.47631073
scalar OsgEarthNet.uav[43] utilizationEnergyCharge 118439.10205078
scalar OsgEarthNet.uav[43] utilizationEnergyOverdrawMission 0
scalar OsgEarthNet.uav[43] utilizationEnergyOverdrawMaintenance 0
scalar OsgEarthNet.uav[43] utilizationCountMissions 26
scalar OsgEarthNet.uav[43] utilizationCountManeuversMission 467
scalar OsgEarthNet.uav[43] utilizationCountManeuversMaintenance 52
scalar OsgEarthNet.uav[43] utilizationCountChargeState 26
scalar OsgEarthNet.uav[43] utilizationCountOverdrawnAfterMission 0
scalar OsgEarthNet.uav[43] utilizationCountIdleState 27
scalar OsgEarthNet.uav[43] utilizationFail 0
scalar OsgEarthNet.uav[43] simulationTime 259200
scalar OsgEarthNet.uav[44] utilizationSecMission 20371.435605521
scalar OsgEarthNet.uav[44] utilizationSecMaintenance 12928.846089611
scalar OsgEarthNet.uav[44] utilizationSecCharge 126777.71579815
scalar OsgEarthNet.uav[44] utilizationSecIdle 99122.001506722
scalar OsgEarthNet.uav[44] utilizationEnergyMission 99097.404495239
scalar OsgEarthNet.uav[44] utilizationEnergyMaintenance 61658.764923096
scalar OsgEarthNet.uav[44] utilizationEnergyCharge 159049.25830078
scalar OsgEarthNet.uav[44] utilizationEnergyOverdrawMission 0
scalar OsgEarthNet.uav[44] utilizationEnergyOverdrawMaintenance 0
scalar OsgEarthNet.uav[44] utilizationCountMissions 39
scalar OsgEarthNet.uav[44] utilizationCountManeuversMission 625
scalar OsgEarthNet.uav[44] utilizationCountManeuversMaintenance 78
scalar OsgEarthNet.uav[44] utilizationCountChargeState 39
scalar OsgEarthNet.uav[44] utilizationCountOverdrawnAfterMission 0
scalar OsgEarthNet.uav[44] utilizationCountIdleState 39
scalar OsgEarthNet.uav[44] utilizationFail 0
scalar OsgEarthNet.uav[44] simulationTime 259200
scalar OsgEarthNet.uav[45] utilizationSecMission 41252.282545835
scalar OsgEarthNet.uav[45] utilizationSecMaintenance 16334.78881139
scalar OsgEarthNet.uav[45] utilizationSecCharge 197541.47468406
scalar OsgEarthNet.uav[45] utilizationSecIdle 4071.4529587171
scalar OsgEarthNet.uav[45] utilizationEnergyMission 195907.49016571
scalar OsgEarthNet.uav[45] utilizationEnergyMaintenance 75148.348220825
scalar OsgEarthNet.uav[45] utilizationEnergyCharge 271794.89160156
scalar OsgEarthNet.uav[45] utilizationEnergyOverdrawMission 0
scalar OsgEarthNet.uav[45] utilizationEnergyOverdrawMaintenance 0
scalar OsgEarthNet.uav[45] utilizationCountMissions 59
scalar OsgEarthNet.uav[45] utilizationCountManeuversMission 1136
scalar OsgEarthNet.uav[45] utilizationCountManeuversMaintenance 118
scalar OsgEarthNet.uav[45] utilizationCountChargeState 59
scalar OsgEarthNet.uav[45] utilizationCountOverdrawnAfterMission 0
scalar OsgEarthNet.uav[45] utilizationCountIdleState 18
scalar OsgEarthNet.uav[45] utilizationFail 0
scalar OsgEarthNet.uav[45] simulationTime 259200
scalar OsgEarthNet.uav[46] utilizationSecMission 14003.750915482
scalar OsgEarthNet.uav[46] utilizationSecMaintenance 10456.919659106
scalar OsgEarthNet.uav[46] utilizationSecCharge 90677.321425413
scalar OsgEarthNet.uav[46] utilizationSecIdle 144062.007
scalar OsgEarthNet.uav[46] utilizationEnergyMission 69003.471530914
scalar OsgEarthNet.uav[46] utilizationEnergyMaintenance 49542.924980163
scalar OsgEarthNet.uav[46] utilizationEnergyCharge 117711.29736328
scalar OsgEarthNet.uav[46] utilizationEnergyOverdrawMission 0
scalar OsgEarthNet.uav[46] utilizationEnergyOverdrawMaintenance 0
scalar OsgEarthNet.uav[46] utilizationCountMissions 26
scalar OsgEarthNet.uav[46] utilizationCountManeuversMission 544
scalar OsgEarthNet.uav[46] utilizationCountManeuversMaintenance 52
scalar OsgEarthNet.uav[46] utilizationCountChargeState 26
scalar OsgEarthNet.uav[46] utilizationCountOverdrawnAfterMission 0
scalar OsgEarthNet.uav[46] utilizationCountIdleState 26
scalar OsgEarthNet.uav[46] utilizationFail 0
scalar OsgEarthNet.uav[46] simulationTime 259200
scalar OsgEarthNet.uav[47] utilizationSecMission 21463.092396598
scalar OsgEarthNet.uav[47] utilizationSecMaintenance 13719.004745626
scalar OsgEarthNet.uav[47] utilizationSecCharge 134745.89285778
scalar OsgEarthNet.uav[47] utilizationSecIdle 89272.009
scalar OsgEarthNet.uav[47] utilizationEnergyMission 102906.38167191
scalar OsgEarthNet.uav[47] utilizationEnergyMaintenance 64753.430400848
scalar OsgEarthNet.uav[47] utilizationEnergyCharge 170200.88134766
scalar OsgEarthNet.uav[47] utilizationEnergyOverdrawMission 0
scalar OsgEarthNet.uav[47] utilizationEnergyOverdrawMaintenance 0
scalar OsgEarthNet.uav[47] utilizationCountMissions 41
scalar OsgEarthNet.uav[47] utilizationCountManeuversMission 673
scalar OsgEarthNet.uav[47] utilizationCountManeuversMaintenance 82
scalar OsgEarthNet.uav[47] utilizationCountChargeState 41
scalar OsgEarthNet.uav[47] utilizationCountOverdrawnAfterMission 0
scalar OsgEarthNet.uav[47] utilizationCountIdleState 41
scalar OsgEarthNet.uav[47] utilizationFail 0
scalar OsgEarthNet.uav[47] simulationTime 259200
scalar OsgEarthNet.uav[48] utilizationSecMission 40113.935586939
scalar OsgEarthNet.uav[48] utilizationSecMaintenance 17853.025815233
scalar OsgEarthNet.uav[48] utilizationSecCharge 196951.03359783
scalar OsgEarthNet.uav[48] utilizationSecIdle 4282.004
scalar OsgEarthNet.uav[48] utilizationEnergyMission 192977.57665253
scalar OsgEarthNet.uav[48] utilizationEnergyMaintenance 81574.567001343
scalar OsgEarthNet.uav[48] utilizationEnergyCharge 273350.84228516
scalar OsgEarthNet.uav[48] utilizationEnergyOverdrawMission 0
scalar OsgEarthNet.uav[48] utilizationEnergyOverdrawMaintenance 0
scalar OsgEarthNet.uav[48] utilizationCountMissions 60
scalar OsgEarthNet.uav[48] utilizationCountManeuversMission 1274
scalar OsgEarthNet.uav[48] utilizationCountManeuversMaintenance 120
scalar OsgEarthNet.uav[48] utilizationCountChargeState 60
scalar OsgEarthNet.uav[48] utilizationCountOverdrawnAfterMission 0
scalar OsgEarthNet.uav[48] utilizationCountIdleState 20
scalar OsgEarthNet.uav[48] utilizationFail 0
scalar OsgEarthNet.uav[48] simulationTime 259200
scalar OsgEarthNet.uav[49] utilizationSecMission 16406.251525803
scalar OsgEarthNet.uav[49] utilizationSecMaintenance 10869.60009477
scalar OsgEarthNet.uav[49] utilizationSecCharge 101680
scalar OsgEarthNet.uav[49] utilizationSecIdle 130244.14737943
scalar OsgEarthNet.uav[49] utilizationEnergyMission 80324.425666809
scalar OsgEarthNet.uav[49] utilizationEnergyMaintenance 51933.692684173
scalar OsgEarthNet.uav[49] utilizationEnergyCharge 130977.79589844
scalar OsgEarthNet.uav[49] utilizationEnergyOverdrawMission 0
scalar OsgEarthNet.uav[49] utilizationEnergyOverdrawMaintenance 0
scalar OsgEarthNet.uav[49] utilizationCountMissions 29
scalar OsgEarthNet.uav[49] utilizationCountManeuversMission 560
scalar OsgEarthNet.uav[49] utilizationCountManeuversMaintenance 58
scalar OsgEarthNet.uav[49] utilizationCountChargeState 29
scalar OsgEarthNet.uav[49] utilizationCountOverdrawnAfterMission 0
scalar OsgEarthNet.uav[49] utilizationCountIdleState 30
scalar OsgEarthNet.uav[49] utilizationFail 0
scalar OsgEarthNet.uav[49] simulationTime 259200
scalar OsgEarthNet.uav[50] utilizationSecMission 40383.950021639
scalar OsgEarthNet.uav[50] utilizationSecMaintenance 17867.076917362
scalar OsgEarthNet.uav[50] utilizationSecCharge 198906.972061
scalar OsgEarthNet.uav[50] utilizationSecIdle 2042
scalar OsgEarthNet.uav[50] utilizationEnergyMission 193513.13558578
scalar OsgEarthNet.uav[50] utilizationEnergyMaintenance 82437.104568481
scalar OsgEarthNet.uav[50] utilizationEnergyCharge 275701.06738281
scalar OsgEarthNet.uav[50] utilizationEnergyOverdrawMission 0
scalar OsgEarthNet.uav[50] utilizationEnergyOverdrawMaintenance 0
scalar OsgEarthNet.uav[50] utilizationCountMissions 60
scalar OsgEarthNet.uav[50] utilizationCountManeuversMission 1140
scalar OsgEarthNet.uav[50] utilizationCountManeuversMaintenance 119
scalar OsgEarthNet.uav[50] utilizationCountChargeState 60
scalar OsgEarthNet.uav[50] utilizationCountOverdrawnAfterMission 0
scalar OsgEarthNet.uav[50] utilizationCountIdleState 20
scalar OsgEarthNet.uav[50] utilizationFail 0
scalar OsgEarthNet.uav[50] simulationTime 259200
scalar OsgEarthNet.uav[51] utilizationSecMission 18486.862412474
scalar OsgEarthNet.uav[51] utilizationSecMaintenance 13243.768139705
scalar OsgEarthNet.uav[51] utilizationSecCharge 122164.66274878
scalar OsgEarthNet.uav[51] utilizationSecIdle 105304.70569904
scalar OsgEarthNet.uav[51] utilizationEnergyMission 89704.659435272
scalar OsgEarthNet.uav[51] utilizationEnergyMaintenance 63636.26424408
scalar OsgEarthNet.uav[51] utilizationEnergyCharge 147953.92999268
scalar OsgEarthNet.uav[51] utilizationEnergyOverdrawMission 0
scalar OsgEarthNet.uav[51] utilizationEnergyOverdrawMaintenance 0
scalar OsgEarthNet.uav[51] utilizationCountMissions 41
scalar OsgEarthNet.uav[51] utilizationCountManeuversMission 558
scalar OsgEarthNet.uav[51] utilizationCountManeuversMaintenance 82
scalar OsgEarthNet.uav[51] utilizationCountChargeState 41
scalar OsgEarthNet.uav[51] utilizationCountOverdrawnAfterMission 0
scalar OsgEarthNet.uav[51] utilizationCountIdleState 41
scalar OsgEarthNet.uav[51] utilizationFail 0
scalar OsgEarthNet.uav[51] simulationTime 259200
scalar OsgEarthNet.uav[52] utilizationSecMission 40340.715611206
scalar OsgEarthNet.uav[52] utilizationSecMaintenance 17871.706392169
scalar OsgEarthNet.uav[52] utilizationSecCharge 196972.12134322
scalar OsgEarthNet.uav[52] utilizationSecIdle 4015.4556534032
scalar OsgEarthNet.uav[52] utilizationEnergyMission 193506.39107513
scalar OsgEarthNet.uav[52] utilizationEnergyMaintenance 82019.322948456
scalar OsgEarthNet.uav[52] utilizationEnergyCharge 273089.48083496
scalar OsgEarthNet.uav[52] utilizationEnergyOverdrawMission 0
scalar OsgEarthNet.uav[52] utilizationEnergyOverdrawMaintenance 0
scalar OsgEarthNet.uav[52] utilizationCountMissions 60
scalar OsgEarthNet.uav[52] utilizationCountManeuversMission 1280
scalar OsgEarthNet.uav[52] utilizationCountManeuversMaintenance 120
scalar OsgEarthNet.uav[52] utilizationCountChargeState 60
scalar OsgEarthNet.uav[52] utilizationCountOverdrawnAfterMission 0
scalar OsgEarthNet.uav[52] utilizationCountIdleState 19
scalar OsgEarthNet.uav[52] utilizationFail 0
scalar OsgEarthNet.uav[52] simulationTime 259200
scalar OsgEarthNet.uav[53] utilizationSecMission 17538.494097373
scalar OsgEarthNet.uav[53] utilizationSecMaintenance 10060.464733821
scalar OsgEarthNet.uav[53] utilizationSecCharge 101860
scalar OsgEarthNet.uav[53] utilizationSecIdle 129741.04016881
scalar OsgEarthNet.uav[53] utilizationEnergyMission 83658.398551941
scalar OsgEarthNet.uav[53] utilizationEnergyMaintenance 47950.458248138
scalar OsgEarthNet.uav[53] utilizationEnergyCharge 131286.41162109
scalar OsgEarthNet.uav[53] utilizationEnergyOverdrawMission 0
scalar OsgEarthNet.uav[53] utilizationEnergyOverdrawMaintenance 0
scalar OsgEarthNet.uav[53] utilizationCountMissions 29
scalar OsgEarthNet.uav[53] utilizationCountManeuversMission 517
scalar OsgEarthNet.uav[53] utilizationCountManeuversMaintenance 58
scalar OsgEarthNet.uav[53] utilizationCountChargeState 29
scalar OsgEarthNet.uav[53] utilizationCountOverdrawnAfterMission 0
scalar OsgEarthNet.uav[53] utilizationCountIdleState 30
scalar OsgEarthNet.uav[53] utilizationFail 0
scalar OsgEarthNet.uav[53] simulationTime 259200
scalar OsgEarthNet.uav[54] utilizationSecMission 21192.839746265
scalar OsgEarthNet.uav[54] utilizationSecMaintenance 13967.470443464
scalar OsgEarthNet.uav[54] utilizationSecCharge 135280
scalar OsgEarthNet.uav[54] utilizationSecIdle 88759.68881027
scalar OsgEarthNet.uav[54] utilizationEnergyMission 105381.41973114
scalar OsgEarthNet.uav[54] utilizationEnergyMaintenance 66302.948638916
scalar OsgEarthNet.uav[54] utilizationEnergyCharge 171221.09106445
scalar OsgEarthNet.uav[54] utilizationEnergyOverdrawMission 0
scalar OsgEarthNet.uav[54] utilizationEnergyOverdrawMaintenance 0
scalar OsgEarthNet.uav[54] utilizationCountMissions 40
scalar OsgEarthNet.uav[54] utilizationCountManeuversMission 770
scalar OsgEarthNet.uav[54] utilizationCountManeuversMaintenance 80
scalar OsgEarthNet.uav[54] utilizationCountChargeState 40
scalar OsgEarthNet.uav[54] utilizationCountOverdrawnAfterMission 0
scalar OsgEarthNet.uav[54] utilizationCountIdleState 41
scalar OsgEarthNet.uav[54] utilizationFail 0
scalar OsgEarthNet.uav[54] simulationTime 259200
scalar OsgEarthNet.uav[55] utilizationSecMission 16789.162427081
scalar OsgEarthNet.uav[55] utilizationSecMaintenance 10542.778130199
scalar OsgEarthNet.uav[55] utilizationSecCharge 100474.68260088
scalar OsgEarthNet.uav[55] utilizationSecIdle 131393.37584184
scalar OsgEarthNet.uav[55] utilizationEnergyMission 82366.012294769
scalar OsgEarthNet.uav[55] utilizationEnergyMaintenance 50347.065284729
scalar OsgEarthNet.uav[55] utilizationEnergyCharge 130473.81396484
scalar OsgEarthNet.uav[55] utilizationEnergyOverdrawMission 0
scalar OsgEarthNet.uav[55] utilizationEnergyOverdrawMaintenance 0
scalar OsgEarthNet.uav[55] utilizationCountMissions 29
scalar OsgEarthNet.uav[55] utilizationCountManeuversMission 532
scalar OsgEarthNet.uav[55] utilizationCountManeuversMaintenance 58
scalar OsgEarthNet.uav[55] utilizationCountChargeState 29
scalar OsgEarthNet.uav[55] utilizationCountOverdrawnAfterMission 0
scalar OsgEarthNet.uav[55] utilizationCountIdleState 29
scalar OsgEarthNet.uav[55] utilizationFail 0
scalar OsgEarthNet.uav[55] simulationTime 259200
scalar OsgEarthNet.uav[56] utilizationSecMission 16288.017908464
scalar OsgEarthNet.uav[56] utilizationSecMaintenance 9749.5308960049
scalar OsgEarthNet.uav[56] utilizationSecCharge 96340
scalar OsgEarthNet.uav[56] utilizationSecIdle 136822.45019553
scalar OsgEarthNet.uav[56] utilizationEnergyMission 77162.328117371
scalar OsgEarthNet.uav[56] utilizationEnergyMaintenance 46088.716403961
scalar OsgEarthNet.uav[56] utilizationEnergyCharge 124983.41113281
scalar OsgEarthNet.uav[56] utilizationEnergyOverdrawMission 0
scalar OsgEarthNet.uav[56] utilizationEnergyOverdrawMaintenance 0
scalar OsgEarthNet.uav[56] utilizationCountMissions 27
scalar OsgEarthNet.uav[56] utilizationCountManeuversMission 493
scalar OsgEarthNet.uav[56] utilizationCountManeuversMaintenance 54
scalar OsgEarthNet.uav[56] utilizationCountChargeState 27
scalar OsgEarthNet.uav[56] utilizationCountOverdrawnAfterMission 0
scalar OsgEarthNet.uav[56] utilizationCountIdleState 28
scalar OsgEarthNet.uav[56] utilizationFail 0
scalar OsgEarthNet.uav[56] simulationTime 259200
scalar OsgEarthNet.uav[57] utilizationSecMission 20261.683240776
scalar OsgEarthNet.uav[57] utilizationSecMaintenance 12866.29438782
scalar OsgEarthNet.uav[57] utilizationSecCharge 125562.00109726
scalar OsgEarthNet.uav[57] utilizationSecIdle 100510.02027414
scalar OsgEarthNet.uav[57] utilizationEnergyMission 98313.183654785
scalar OsgEarthNet.uav[57] utilizationEnergyMaintenance 61156.148395538
scalar OsgEarthNet.uav[57] utilizationEnergyCharge 159443.80078125
scalar OsgEarthNet.uav[57] utilizationEnergyOverdrawMission 0
scalar OsgEarthNet.uav[57] utilizationEnergyOverdrawMaintenance 0
scalar OsgEarthNet.uav[57] utilizationCountMissions 38
scalar OsgEarthNet.uav[57] utilizationCountManeuversMission 657
scalar OsgEarthNet.uav[57] utilizationCountManeuversMaintenance 76
scalar OsgEarthNet.uav[57] utilizationCountChargeState 38
scalar OsgEarthNet.uav[57] utilizationCountOverdrawnAfterMission 0
scalar OsgEarthNet.uav[57] utilizationCountIdleState 38
scalar OsgEarthNet.uav[57] utilizationFail 0
scalar OsgEarthNet.uav[57] simulationTime 259200
scalar OsgEarthNet.uav[58] utilizationSecMission 39721.911193535
scalar OsgEarthNet.uav[58] utilizationSecMaintenance 18384.198886488
scalar OsgEarthNet.uav[58] utilizationSecCharge 196920
scalar OsgEarthNet.uav[58] utilizationSecIdle 4173.8889199767
scalar OsgEarthNet.uav[58] utilizationEnergyMission 193342.61154616
scalar OsgEarthNet.uav[58] utilizationEnergyMaintenance 83019.020915985
scalar OsgEarthNet.uav[58] utilizationEnergyCharge 273581.53271484
scalar OsgEarthNet.uav[58] utilizationEnergyOverdrawMission 0
scalar OsgEarthNet.uav[58] utilizationEnergyOverdrawMaintenance 0
scalar OsgEarthNet.uav[58] utilizationCountMissions 60
scalar OsgEarthNet.uav[58] utilizationCountManeuversMission 1324
scalar OsgEarthNet.uav[58] utilizationCountManeuversMaintenance 121
scalar OsgEarthNet.uav[58] utilizationCountChargeState 60
scalar OsgEarthNet.uav[58] utilizationCountOverdrawnAfterMission 0
scalar OsgEarthNet.uav[58] utilizationCountIdleState 15
scalar OsgEarthNet.uav[58] utilizationFail 0
scalar OsgEarthNet.uav[58] simulationTime 259200
scalar OsgEarthNet.uav[59] utilizationSecMission 16102.926353708
scalar OsgEarthNet.uav[59] utilizationSecMaintenance 10566.502213235
scalar OsgEarthNet.uav[59] utilizationSecCharge 97940
scalar OsgEarthNet.uav[59] utilizationSecIdle 134590.57043306
scalar OsgEarthNet.uav[59] utilizationEnergyMission 79169.299716234
scalar OsgEarthNet.uav[59] utilizationEnergyMaintenance 49550.364212036
scalar OsgEarthNet.uav[59] utilizationEnergyCharge 125926.94433594
scalar OsgEarthNet.uav[59] utilizationEnergyOverdrawMission 0
scalar OsgEarthNet.uav[59] utilizationEnergyOverdrawMaintenance 0
scalar OsgEarthNet.uav[59] utilizationCountMissions 28
scalar OsgEarthNet.uav[59] utilizationCountManeuversMission 554
scalar OsgEarthNet.uav[59] utilizationCountManeuversMaintenance 57
scalar OsgEarthNet.uav[59] utilizationCountChargeState 28
scalar OsgEarthNet.uav[59] utilizationCountOverdrawnAfterMission 0
scalar OsgEarthNet.uav[59] utilizationCountIdleState 29
scalar OsgEarthNet.uav[59] utilizationFail 0
scalar OsgEarthNet.uav[59] simulationTime 259200
scalar OsgEarthNet.uav[60] utilizationSecMission 18557.134717134
scalar OsgEarthNet.uav[60] utilizationSecMaintenance 12546.744191844
scalar OsgEarthNet.uav[60] utilizationSecCharge 115566.17581318
scalar OsgEarthNet.uav[60] utilizationSecIdle 112529.94427784
scalar OsgEarthNet.uav[60] utilizationEnergyMission 90472.202415466
scalar OsgEarthNet.uav[60] utilizationEnergyMaintenance 59310.233135223
scalar OsgEarthNet.uav[60] utilizationEnergyCharge 150423.7043457
scalar OsgEarthNet.uav[60] utilizationEnergyOverdrawMission 0
scalar OsgEarthNet.uav[60] utilizationEnergyOverdrawMaintenance 0
scalar OsgEarthNet.uav[60] utilizationCountMissions 33
scalar OsgEarthNet.uav[60] utilizationCountManeuversMission 637
scalar OsgEarthNet.uav[60] utilizationCountManeuversMaintenance 66
scalar OsgEarthNet.uav[60] utilizationCountChargeState 33
scalar OsgEarthNet.uav[60] utilizationCountOverdrawnAfterMission 0
scalar OsgEarthNet.uav[60] utilizationCountIdleState 33
scalar OsgEarthNet.uav[60] utilizationFail 0
scalar OsgEarthNet.uav[60] simulationTime 259200
scalar OsgEarthNet.uav[61] utilizationSecMission 20391.007584859
scalar OsgEarthNet.uav[61] utilizationSecMaintenance 14909.783558103
scalar OsgEarthNet.uav[61] utilizationSecCharge 134907.20485704
scalar OsgEarthNet.uav[61] utilizationSecIdle 88992.003
scalar OsgEarthNet.uav[61] utilizationEnergyMission 102814.71987152
scalar OsgEarthNet.uav[61] utilizationEnergyMaintenance 70276.7774086
scalar OsgEarthNet.uav[61] utilizationEnergyCharge 167667.70239258
scalar OsgEarthNet.uav[61] utilizationEnergyOverdrawMission 0
scalar OsgEarthNet.uav[61] utilizationEnergyOverdrawMaintenance 0
scalar OsgEarthNet.uav[61] utilizationCountMissions 43
scalar OsgEarthNet.uav[61] utilizationCountManeuversMission 758
scalar OsgEarthNet.uav[61] utilizationCountManeuversMaintenance 86
scalar OsgEarthNet.uav[61] utilizationCountChargeState 43
scalar OsgEarthNet.uav[61] utilizationCountOverdrawnAfterMission 0
scalar OsgEarthNet.uav[61] utilizationCountIdleState 43
scalar OsgEarthNet.uav[61] utilizationFail 0
scalar OsgEarthNet.uav[61] simulationTime 259200
scalar OsgEarthNet.uav[62] utilizationSecMission 41469.738540023
scalar OsgEarthNet.uav[62] utilizationSecMaintenance 15678.255459977
scalar OsgEarthNet.uav[62] utilizationSecCharge 195690
scalar OsgEarthNet.uav[62] utilizationSecIdle 6362.005
scalar OsgEarthNet.uav[62] utilizationEnergyMission 197752.78755951
scalar OsgEarthNet.uav[62] utilizationEnergyMaintenance 72040.919934704
scalar OsgEarthNet.uav[62] utilizationEnergyCharge 270752.11816406
scalar OsgEarthNet.uav[62] utilizationEnergyOverdrawMission 0
scalar OsgEarthNet.uav[62] utilizationEnergyOverdrawMaintenance 0
scalar OsgEarthNet.uav[62] utilizationCountMissions 58
scalar OsgEarthNet.uav[62] utilizationCountManeuversMission 1089
scalar OsgEarthNet.uav[62] utilizationCountManeuversMaintenance 117
scalar OsgEarthNet.uav[62] utilizationCountChargeState 58
scalar OsgEarthNet.uav[62] utilizationCountOverdrawnAfterMission 0
scalar OsgEarthNet.uav[62] utilizationCountIdleState 21
scalar OsgEarthNet.uav[62] utilizationFail 0
scalar OsgEarthNet.uav[62] simulationTime 259200
scalar OsgEarthNet.uav[63] utilizationSecMission 19880.133873915
scalar OsgEarthNet.uav[63] utilizationSecMaintenance 12465.548260287
scalar OsgEarthNet.uav[63] utilizationSecCharge 120660
scalar OsgEarthNet.uav[63] utilizationSecIdle 106194.3168658
scalar OsgEarthNet.uav[63] utilizationEnergyMission 97610.367458344
scalar OsgEarthNet.uav[63] utilizationEnergyMaintenance 59250.451164245
scalar OsgEarthNet.uav[63] utilizationEnergyCharge 155929.09960938
scalar OsgEarthNet.uav[63] utilizationEnergyOverdrawMission 0
scalar OsgEarthNet.uav[63] utilizationEnergyOverdrawMaintenance 0
scalar OsgEarthNet.uav[63] utilizationCountMissions 34
scalar OsgEarthNet.uav[63] utilizationCountManeuversMission 653
scalar OsgEarthNet.uav[63] utilizationCountManeuversMaintenance 67
scalar OsgEarthNet.uav[63] utilizationCountChargeState 34
scalar OsgEarthNet.uav[63] utilizationCountOverdrawnAfterMission 0
scalar OsgEarthNet.uav[63] utilizationCountIdleState 35
scalar OsgEarthNet.uav[63] utilizationFail 0
scalar OsgEarthNet.uav[63] simulationTime 259200
scalar OsgEarthNet.uav[64] utilizationSecMission 20649.685114899
scalar OsgEarthNet.uav[64] utilizationSecMaintenance 13621.930321508
scalar OsgEarthNet.uav[64] utilizationSecCharge 130716.37156359
scalar OsgEarthNet.uav[64] utilizationSecIdle 94212.012
scalar OsgEarthNet.uav[64] utilizationEnergyMission 101893.50683594
scalar OsgEarthNet.uav[64] utilizationEnergyMaintenance 64477.343971252
scalar OsgEarthNet.uav[64] utilizationEnergyCharge 166894.97363281
scalar OsgEarthNet.uav[64] utilizationEnergyOverdrawMission 0
scalar OsgEarthNet.uav[64] utilizationEnergyOverdrawMaintenance 0
scalar OsgEarthNet.uav[64] utilizationCountMissions 38
scalar OsgEarthNet.uav[64] utilizationCountManeuversMission 788
scalar OsgEarthNet.uav[64] utilizationCountManeuversMaintenance 76
scalar OsgEarthNet.uav[64] utilizationCountChargeState 38
scalar OsgEarthNet.uav[64] utilizationCountOverdrawnAfterMission 0
scalar OsgEarthNet.uav[64] utilizationCountIdleState 38
scalar OsgEarthNet.uav[64] utilizationFail 0
scalar OsgEarthNet.uav[64] simulationTime 259200
scalar OsgEarthNet.uav[65] utilizationSecMission 42116.342099925
scalar OsgEarthNet.uav[65] utilizationSecMaintenance 16144.808246414
scalar OsgEarthNet.uav[65] utilizationSecCharge 198346.84865366
scalar OsgEarthNet.uav[65] utilizationSecIdle 2592
[...]
scalar OsgEarthNet.uav[180] utilizationSecIdle 259199.999
scalar OsgEarthNet.uav[180] utilizationEnergyMission 0
scalar OsgEarthNet.uav[180] utilizationEnergyMaintenance 0
scalar OsgEarthNet.uav[180] utilizationEnergyCharge 0
scalar OsgEarthNet.uav[180] utilizationEnergyOverdrawMission 0
scalar OsgEarthNet.uav[180] utilizationEnergyOverdrawMaintenance 0
scalar OsgEarthNet.uav[180] utilizationCountMissions 0
scalar OsgEarthNet.uav[180] utilizationCountManeuversMission 0
scalar OsgEarthNet.uav[180] utilizationCountManeuversMaintenance 0
scalar OsgEarthNet.uav[180] utilizationCountChargeState 0
scalar OsgEarthNet.uav[180] utilizationCountOverdrawnAfterMission 0
scalar OsgEarthNet.uav[180] utilizationCountIdleState 1
scalar OsgEarthNet.uav[180] utilizationFail 0
scalar OsgEarthNet.uav[180] simulationTime 259200
scalar OsgEarthNet.uav[181] utilizationSecMission 0
scalar OsgEarthNet.uav[181] utilizationSecMaintenance 0
scalar OsgEarthNet.uav[181] utilizationSecCharge 0
scalar OsgEarthNet.uav[181] utilizationSecIdle 259199.999
scalar OsgEarthNet.uav[181] utilizationEnergyMission 0
scalar OsgEarthNet.uav[181] utilizationEnergyMaintenance 0
scalar OsgEarthNet.uav[181] utilizationEnergyCharge 0
scalar OsgEarthNet.uav[181] utilizationEnergyOverdrawMission 0
scalar OsgEarthNet.uav[181] utilizationEnergyOverdrawMaintenance 0
scalar OsgEarthNet.uav[181] utilizationCountMissions 0
scalar OsgEarthNet.uav[181] utilizationCountManeuversMission 0
scalar OsgEarthNet.uav[181] utilizationCountManeuversMaintenance 0
scalar OsgEarthNet.uav[181] utilizationCountChargeState 0
scalar OsgEarthNet.uav[181] utilizationCountOverdrawnAfterMission 0
scalar OsgEarthNet.uav[181] utilizationCountIdleState 1
scalar OsgEarthNet.uav[181] utilizationFail 0
scalar OsgEarthNet.uav[181] simulationTime 259200
scalar OsgEarthNet.uav[182] utilizationSecMission 0
scalar OsgEarthNet.uav[182] utilizationSecMaintenance 0
scalar OsgEarthNet.uav[182] utilizationSecCharge 0
scalar OsgEarthNet.uav[182] utilizationSecIdle 259199.999
scalar OsgEarthNet.uav[182] utilizationEnergyMission 0
scalar OsgEarthNet.uav[182] utilizationEnergyMaintenance 0
scalar OsgEarthNet.uav[182] utilizationEnergyCharge 0
scalar OsgEarthNet.uav[182] utilizationEnergyOverdrawMission 0
scalar OsgEarthNet.uav[182] utilizationEnergyOverdrawMaintenance 0
scalar OsgEarthNet.uav[182] utilizationCountMissions 0
scalar OsgEarthNet.uav[182] utilizationCountManeuversMission 0
scalar OsgEarthNet.uav[182] utilizationCountManeuversMaintenance 0
scalar OsgEarthNet.uav[182] utilizationCountChargeState 0
scalar OsgEarthNet.uav[182] utilizationCountOverdrawnAfterMission 0
scalar OsgEarthNet.uav[182] utilizationCountIdleState 1
scalar OsgEarthNet.uav[182] utilizationFail 0
scalar OsgEarthNet.uav[182] simulationTime 259200
scalar OsgEarthNet.uav[183] utilizationSecMission 0
scalar OsgEarthNet.uav[183] utilizationSecMaintenance 0
scalar OsgEarthNet.uav[183] utilizationSecCharge 0
scalar OsgEarthNet.uav[183] utilizationSecIdle 259199.999
scalar OsgEarthNet.uav[183] utilizationEnergyMission 0
scalar OsgEarthNet.uav[183] utilizationEnergyMaintenance 0
scalar OsgEarthNet.uav[183] utilizationEnergyCharge 0
scalar OsgEarthNet.uav[183] utilizationEnergyOverdrawMission 0
scalar OsgEarthNet.uav[183] utilizationEnergyOverdrawMaintenance 0
scalar OsgEarthNet.uav[183] utilizationCountMissions 0
scalar OsgEarthNet.uav[183] utilizationCountManeuversMission 0
scalar OsgEarthNet.uav[183] utilizationCountManeuversMaintenance 0
scalar OsgEarthNet.uav[183] utilizationCountChargeState 0
scalar OsgEarthNet.uav[183] utilizationCountOverdrawnAfterMission 0
scalar OsgEarthNet.uav[183] utilizationCountIdleState 1
scalar OsgEarthNet.uav[183] utilizationFail 0
scalar OsgEarthNet.uav[183] simulationTime 259200
scalar OsgEarthNet.uav[184] utilizationSecMission 0
scalar OsgEarthNet.uav[184] utilizationSecMaintenance 0
scalar OsgEarthNet.uav[184] utilizationSecCharge 0
scalar OsgEarthNet.uav[184] utilizationSecIdle 259199.999
scalar OsgEarthNet.uav[184] utilizationEnergyMission 0
scalar OsgEarthNet.uav[184] utilizationEnergyMaintenance 0
scalar OsgEarthNet.uav[184] utilizationEnergyCharge 0
scalar OsgEarthNet.uav[184] utilizationEnergyOverdrawMission 0
scalar OsgEarthNet.uav[184] utilizationEnergyOverdrawMaintenance 0
scalar OsgEarthNet.uav[184] utilizationCountMissions 0
scalar OsgEarthNet.uav[184] utilizationCountManeuversMission 0
scalar OsgEarthNet.uav[184] utilizationCountManeuversMaintenance 0
scalar OsgEarthNet.uav[184] utilizationCountChargeState 0
scalar OsgEarthNet.uav[184] utilizationCountOverdrawnAfterMission 0
scalar OsgEarthNet.uav[184] utilizationCountIdleState 1
scalar OsgEarthNet.uav[184] utilizationFail 0
scalar OsgEarthNet.uav[184] simulationTime 259200
scalar OsgEarthNet.uav[185] utilizationSecMission 0
scalar OsgEarthNet.uav[185] utilizationSecMaintenance 0
scalar OsgEarthNet.uav[185] utilizationSecCharge 0
scalar OsgEarthNet.uav[185] utilizationSecIdle 259199.999
scalar OsgEarthNet.uav[185] utilizationEnergyMission 0
scalar OsgEarthNet.uav[185] utilizationEnergyMaintenance 0
scalar OsgEarthNet.uav[185] utilizationEnergyCharge 0
scalar OsgEarthNet.uav[185] utilizationEnergyOverdrawMission 0
scalar OsgEarthNet.uav[185] utilizationEnergyOverdrawMaintenance 0
scalar OsgEarthNet.uav[185] utilizationCountMissions 0
scalar OsgEarthNet.uav[185] utilizationCountManeuversMission 0
scalar OsgEarthNet.uav[185] utilizationCountManeuversMaintenance 0
scalar OsgEarthNet.uav[185] utilizationCountChargeState 0
scalar OsgEarthNet.uav[185] utilizationCountOverdrawnAfterMission 0
scalar OsgEarthNet.uav[185] utilizationCountIdleState 1
scalar OsgEarthNet.uav[185] utilizationFail 0
scalar OsgEarthNet.uav[185] simulationTime 259200
scalar OsgEarthNet.uav[186] utilizationSecMission 0
scalar OsgEarthNet.uav[186] utilizationSecMaintenance 0
scalar OsgEarthNet.uav[186] utilizationSecCharge 0
scalar OsgEarthNet.uav[186] utilizationSecIdle 259199.999
scalar OsgEarthNet.uav[186] utilizationEnergyMission 0
scalar OsgEarthNet.uav[186] utilizationEnergyMaintenance 0
scalar OsgEarthNet.uav[186] utilizationEnergyCharge 0
scalar OsgEarthNet.uav[186] utilizationEnergyOverdrawMission 0
scalar OsgEarthNet.uav[186] utilizationEnergyOverdrawMaintenance 0
scalar OsgEarthNet.uav[186] utilizationCountMissions 0
scalar OsgEarthNet.uav[186] utilizationCountManeuversMission 0
scalar OsgEarthNet.uav[186] utilizationCountManeuversMaintenance 0
scalar OsgEarthNet.uav[186] utilizationCountChargeState 0
scalar OsgEarthNet.uav[186] utilizationCountOverdrawnAfterMission 0
scalar OsgEarthNet.uav[186] utilizationCountIdleState 1
scalar OsgEarthNet.uav[186] utilizationFail 0
scalar OsgEarthNet.uav[186] simulationTime 259200
scalar OsgEarthNet.uav[187] utilizationSecMission 0
scalar OsgEarthNet.uav[187] utilizationSecMaintenance 0
scalar OsgEarthNet.uav[187] utilizationSecCharge 0
scalar OsgEarthNet.uav[187] utilizationSecIdle 259199.999
scalar OsgEarthNet.uav[187] utilizationEnergyMission 0
scalar OsgEarthNet.uav[187] utilizationEnergyMaintenance 0
scalar OsgEarthNet.uav[187] utilizationEnergyCharge 0
scalar OsgEarthNet.uav[187] utilizationEnergyOverdrawMission 0
scalar OsgEarthNet.uav[187] utilizationEnergyOverdrawMaintenance 0
scalar OsgEarthNet.uav[187] utilizationCountMissions 0
scalar OsgEarthNet.uav[187] utilizationCountManeuversMission 0
scalar OsgEarthNet.uav[187] utilizationCountManeuversMaintenance 0
scalar OsgEarthNet.uav[187] utilizationCountChargeState 0
scalar OsgEarthNet.uav[187] utilizationCountOverdrawnAfterMission 0
scalar OsgEarthNet.uav[187] utilizationCountIdleState 1
scalar OsgEarthNet.uav[187] utilizationFail 0
scalar OsgEarthNet.uav[187] simulationTime 259200
scalar OsgEarthNet.uav[188] utilizationSecMission 0
scalar OsgEarthNet.uav[188] utilizationSecMaintenance 0
scalar OsgEarthNet.uav[188] utilizationSecCharge 0
scalar OsgEarthNet.uav[188] utilizationSecIdle 259199.999
scalar OsgEarthNet.uav[188] utilizationEnergyMission 0
scalar OsgEarthNet.uav[188] utilizationEnergyMaintenance 0
scalar OsgEarthNet.uav[188] utilizationEnergyCharge 0
scalar OsgEarthNet.uav[188] utilizationEnergyOverdrawMission 0
scalar OsgEarthNet.uav[188] utilizationEnergyOverdrawMaintenance 0
scalar OsgEarthNet.uav[188] utilizationCountMissions 0
scalar OsgEarthNet.uav[188] utilizationCountManeuversMission 0
scalar OsgEarthNet.uav[188] utilizationCountManeuversMaintenance 0
scalar OsgEarthNet.uav[188] utilizationCountChargeState 0
scalar OsgEarthNet.uav[188] utilizationCountOverdrawnAfterMission 0
scalar OsgEarthNet.uav[188] utilizationCountIdleState 1
scalar OsgEarthNet.uav[188] utilizationFail 0
scalar OsgEarthNet.uav[188] simulationTime 259200
scalar OsgEarthNet.uav[189] utilizationSecMission 0
scalar OsgEarthNet.uav[189] utilizationSecMaintenance 0
scalar OsgEarthNet.uav[189] utilizationSecCharge 0
scalar OsgEarthNet.uav[189] utilizationSecIdle 259199.999
scalar OsgEarthNet.uav[189] utilizationEnergyMission 0
scalar OsgEarthNet.uav[189] utilizationEnergyMaintenance 0
scalar OsgEarthNet.uav[189] utilizationEnergyCharge 0
scalar OsgEarthNet.uav[189] utilizationEnergyOverdrawMission 0
scalar OsgEarthNet.uav[189] utilizationEnergyOverdrawMaintenance 0
scalar OsgEarthNet.uav[189] utilizationCountMissions 0
scalar OsgEarthNet.uav[189] utilizationCountManeuversMission 0
scalar OsgEarthNet.uav[189] utilizationCountManeuversMaintenance 0
scalar OsgEarthNet.uav[189] utilizationCountChargeState 0
scalar OsgEarthNet.uav[189] utilizationCountOverdrawnAfterMission 0
scalar OsgEarthNet.uav[189] utilizationCountIdleState 1
scalar OsgEarthNet.uav[189] utilizationFail 0
scalar OsgEarthNet.uav[189] simulationTime 259200
scalar OsgEarthNet.uav[190] utilizationSecMission 0
scalar OsgEarthNet.uav[190] utilizationSecMaintenance 0
scalar OsgEarthNet.uav[190] utilizationSecCharge 0
scalar OsgEarthNet.uav[190] utilizationSecIdle 259199.999
scalar OsgEarthNet.uav[190] utilizationEnergyMission 0
scalar OsgEarthNet.uav[190] utilizationEnergyMaintenance 0
scalar OsgEarthNet.uav[190] utilizationEnergyCharge 0
scalar OsgEarthNet.uav[190] utilizationEnergyOverdrawMission 0
scalar OsgEarthNet.uav[190] utilizationEnergyOverdrawMaintenance 0
scalar OsgEarthNet.uav[190] utilizationCountMissions 0
scalar OsgEarthNet.uav[190] utilizationCountManeuversMission 0
scalar OsgEarthNet.uav[190] utilizationCountManeuversMaintenance 0
scalar OsgEarthNet.uav[190] utilizationCountChargeState 0
scalar OsgEarthNet.uav[190] utilizationCountOverdrawnAfterMission 0
scalar OsgEarthNet.uav[190] utilizationCountIdleState 1
scalar OsgEarthNet.uav[190] utilizationFail 0
scalar OsgEarthNet.uav[190] simulationTime 259200
scalar OsgEarthNet.uav[191] utilizationSecMission 0
scalar OsgEarthNet.uav[191] utilizationSecMaintenance 0
scalar OsgEarthNet.uav[191] utilizationSecCharge 0
scalar OsgEarthNet.uav[191] utilizationSecIdle 259199.999
scalar OsgEarthNet.uav[191] utilizationEnergyMission 0
scalar OsgEarthNet.uav[191] utilizationEnergyMaintenance 0
scalar OsgEarthNet.uav[191] utilizationEnergyCharge 0
scalar OsgEarthNet.uav[191] utilizationEnergyOverdrawMission 0
scalar OsgEarthNet.uav[191] utilizationEnergyOverdrawMaintenance 0
scalar OsgEarthNet.uav[191] utilizationCountMissions 0
scalar OsgEarthNet.uav[191] utilizationCountManeuversMission 0
scalar OsgEarthNet.uav[191] utilizationCountManeuversMaintenance 0
scalar OsgEarthNet.uav[191] utilizationCountChargeState 0
scalar OsgEarthNet.uav[191] utilizationCountOverdrawnAfterMission 0
scalar OsgEarthNet.uav[191] utilizationCountIdleState 1
scalar OsgEarthNet.uav[191] utilizationFail 0
scalar OsgEarthNet.uav[191] simulationTime 259200
scalar OsgEarthNet.uav[192] utilizationSecMission 0
scalar OsgEarthNet.uav[192] utilizationSecMaintenance 0
scalar OsgEarthNet.uav[192] utilizationSecCharge 0
scalar OsgEarthNet.uav[192] utilizationSecIdle 259199.999
scalar OsgEarthNet.uav[192] utilizationEnergyMission 0
scalar OsgEarthNet.uav[192] utilizationEnergyMaintenance 0
scalar OsgEarthNet.uav[192] utilizationEnergyCharge 0
scalar OsgEarthNet.uav[192] utilizationEnergyOverdrawMission 0
scalar OsgEarthNet.uav[192] utilizationEnergyOverdrawMaintenance 0
scalar OsgEarthNet.uav[192] utilizationCountMissions 0
scalar OsgEarthNet.uav[192] utilizationCountManeuversMission 0
scalar OsgEarthNet.uav[192] utilizationCountManeuversMaintenance 0
scalar OsgEarthNet.uav[192] utilizationCountChargeState 0
scalar OsgEarthNet.uav[192] utilizationCountOverdrawnAfterMission 0
scalar OsgEarthNet.uav[192] utilizationCountIdleState 1
scalar OsgEarthNet.uav[192] utilizationFail 0
scalar OsgEarthNet.uav[192] simulationTime 259200
scalar OsgEarthNet.uav[193] utilizationSecMission 0
scalar OsgEarthNet.uav[193] utilizationSecMaintenance 0
scalar OsgEarthNet.uav[193] utilizationSecCharge 0
scalar OsgEarthNet.uav[193] utilizationSecIdle 259199.999
scalar OsgEarthNet.uav[193] utilizationEnergyMission 0
scalar OsgEarthNet.uav[193] utilizationEnergyMaintenance 0
scalar OsgEarthNet.uav[193] utilizationEnergyCharge 0
scalar OsgEarthNet.uav[193] utilizationEnergyOverdrawMission 0
scalar OsgEarthNet.uav[193] utilizationEnergyOverdrawMaintenance 0
scalar OsgEarthNet.uav[193] utilizationCountMissions 0
scalar OsgEarthNet.uav[193] utilizationCountManeuversMission 0
scalar OsgEarthNet.uav[193] utilizationCountManeuversMaintenance 0
scalar OsgEarthNet.uav[193] utilizationCountChargeState 0
scalar OsgEarthNet.uav[193] utilizationCountOverdrawnAfterMission 0
scalar OsgEarthNet.uav[193] utilizationCountIdleState 1
scalar OsgEarthNet.uav[193] utilizationFail 0
scalar OsgEarthNet.uav[193] simulationTime 259200
scalar OsgEarthNet.uav[194] utilizationSecMission 0
scalar OsgEarthNet.uav[194] utilizationSecMaintenance 0
scalar OsgEarthNet.uav[194] utilizationSecCharge 0
scalar OsgEarthNet.uav[194] utilizationSecIdle 259199.999
scalar OsgEarthNet.uav[194] utilizationEnergyMission 0
scalar OsgEarthNet.uav[194] utilizationEnergyMaintenance 0
scalar OsgEarthNet.uav[194] utilizationEnergyCharge 0
scalar OsgEarthNet.uav[194] utilizationEnergyOverdrawMission 0
scalar OsgEarthNet.uav[194] utilizationEnergyOverdrawMaintenance 0
scalar OsgEarthNet.uav[194] utilizationCountMissions 0
scalar OsgEarthNet.uav[194] utilizationCountManeuversMission 0
scalar OsgEarthNet.uav[194] utilizationCountManeuversMaintenance 0
scalar OsgEarthNet.uav[194] utilizationCountChargeState 0
scalar OsgEarthNet.uav[194] utilizationCountOverdrawnAfterMission 0
scalar OsgEarthNet.uav[194] utilizationCountIdleState 1
scalar OsgEarthNet.uav[194] utilizationFail 0
scalar OsgEarthNet.uav[194] simulationTime 259200
scalar OsgEarthNet.uav[195] utilizationSecMission 0
scalar OsgEarthNet.uav[195] utilizationSecMaintenance 0
scalar OsgEarthNet.uav[195] utilizationSecCharge 0
scalar OsgEarthNet.uav[195] utilizationSecIdle 259199.999
scalar OsgEarthNet.uav[195] utilizationEnergyMission 0
scalar OsgEarthNet.uav[195] utilizationEnergyMaintenance 0
scalar OsgEarthNet.uav[195] utilizationEnergyCharge 0
scalar OsgEarthNet.uav[195] utilizationEnergyOverdrawMission 0
scalar OsgEarthNet.uav[195] utilizationEnergyOverdrawMaintenance 0
scalar OsgEarthNet.uav[195] utilizationCountMissions 0
scalar OsgEarthNet.uav[195] utilizationCountManeuversMission 0
scalar OsgEarthNet.uav[195] utilizationCountManeuversMaintenance 0
scalar OsgEarthNet.uav[195] utilizationCountChargeState 0
scalar OsgEarthNet.uav[195] utilizationCountOverdrawnAfterMission 0
scalar OsgEarthNet.uav[195] utilizationCountIdleState 1
scalar OsgEarthNet.uav[195] utilizationFail 0
scalar OsgEarthNet.uav[195] simulationTime 259200
scalar OsgEarthNet.uav[196] utilizationSecMission 0
scalar OsgEarthNet.uav[196] utilizationSecMaintenance 0
scalar OsgEarthNet.uav[196] utilizationSecCharge 0
scalar OsgEarthNet.uav[196] utilizationSecIdle 259199.999
scalar OsgEarthNet.uav[196] utilizationEnergyMission 0
scalar OsgEarthNet.uav[196] utilizationEnergyMaintenance 0
scalar OsgEarthNet.uav[196] utilizationEnergyCharge 0
scalar OsgEarthNet.uav[196] utilizationEnergyOverdrawMission 0
scalar OsgEarthNet.uav[196] utilizationEnergyOverdrawMaintenance 0
scalar OsgEarthNet.uav[196] utilizationCountMissions 0
scalar OsgEarthNet.uav[196] utilizationCountManeuversMission 0
scalar OsgEarthNet.uav[196] utilizationCountManeuversMaintenance 0
scalar OsgEarthNet.uav[196] utilizationCountChargeState 0
scalar OsgEarthNet.uav[196] utilizationCountOverdrawnAfterMission 0
scalar OsgEarthNet.uav[196] utilizationCountIdleState 1
scalar OsgEarthNet.uav[196] utilizationFail 0
scalar OsgEarthNet.uav[196] simulationTime 259200
scalar OsgEarthNet.uav[197] utilizationSecMission 0
scalar OsgEarthNet.uav[197] utilizationSecMaintenance 0
scalar OsgEarthNet.uav[197] utilizationSecCharge 0
scalar OsgEarthNet.uav[197] utilizationSecIdle 259199.999
scalar OsgEarthNet.uav[197] utilizationEnergyMission 0
scalar OsgEarthNet.uav[197] utilizationEnergyMaintenance 0
scalar OsgEarthNet.uav[197] utilizationEnergyCharge 0
scalar OsgEarthNet.uav[197] utilizationEnergyOverdrawMission 0
scalar OsgEarthNet.uav[197] utilizationEnergyOverdrawMaintenance 0
scalar OsgEarthNet.uav[197] utilizationCountMissions 0
scalar OsgEarthNet.uav[197] utilizationCountManeuversMission 0
scalar OsgEarthNet.uav[197] utilizationCountManeuversMaintenance 0
scalar OsgEarthNet.uav[197] utilizationCountChargeState 0
scalar OsgEarthNet.uav[197] utilizationCountOverdrawnAfterMission 0
scalar OsgEarthNet.uav[197] utilizationCountIdleState 1
scalar OsgEarthNet.uav[197] utilizationFail 0
scalar OsgEarthNet.uav[197] simulationTime 259200
scalar OsgEarthNet.uav[198] utilizationSecMission 0
scalar OsgEarthNet.uav[198] utilizationSecMaintenance 0
scalar OsgEarthNet.uav[198] utilizationSecCharge 0
scalar OsgEarthNet.uav[198] utilizationSecIdle 259199.999
scalar OsgEarthNet.uav[198] utilizationEnergyMission 0
scalar OsgEarthNet.uav[198] utilizationEnergyMaintenance 0
scalar OsgEarthNet.uav[198] utilizationEnergyCharge 0
scalar OsgEarthNet.uav[198] utilizationEnergyOverdrawMission 0
scalar OsgEarthNet.uav[198] utilizationEnergyOverdrawMaintenance 0
scalar OsgEarthNet.uav[198] utilizationCountMissions 0
scalar OsgEarthNet.uav[198] utilizationCountManeuversMission 0
scalar OsgEarthNet.uav[198] utilizationCountManeuversMaintenance 0
scalar OsgEarthNet.uav[198] utilizationCountChargeState 0
scalar OsgEarthNet.uav[198] utilizationCountOverdrawnAfterMission 0
scalar OsgEarthNet.uav[198] utilizationCountIdleState 1
scalar OsgEarthNet.uav[198] utilizationFail 0
scalar OsgEarthNet.uav[198] simulationTime 259200
scalar OsgEarthNet.uav[199] utilizationSecMission 0
scalar OsgEarthNet.uav[199] utilizationSecMaintenance 0
scalar OsgEarthNet.uav[199] utilizationSecCharge 0
scalar OsgEarthNet.uav[199] utilizationSecIdle 259199.999
scalar OsgEarthNet.uav[199] utilizationEnergyMission 0
scalar OsgEarthNet.uav[199] utilizationEnergyMaintenance 0
scalar OsgEarthNet.uav[199] utilizationEnergyCharge 0
scalar OsgEarthNet.uav[199] utilizationEnergyOverdrawMission 0
scalar OsgEarthNet.uav[199] utilizationEnergyOverdrawMaintenance 0
scalar OsgEarthNet.uav[199] utilizationCountMissions 0
scalar OsgEarthNet.uav[199] utilizationCountManeuversMission 0
scalar OsgEarthNet.uav[199] utilizationCountManeuversMaintenance 0
scalar OsgEarthNet.uav[199] utilizationCountChargeState 0
scalar OsgEarthNet.uav[199] utilizationCountOverdrawnAfterMission 0
scalar OsgEarthNet.uav[199] utilizationCountIdleState 1
scalar OsgEarthNet.uav[199] utilizationFail 0
scalar OsgEarthNet.uav[199] simulationTime 259200
scalar OsgEarthNet.cs[0] usedPower 4019415.6249315
scalar OsgEarthNet.cs[0] chargedPower 4019415.6249315
scalar OsgEarthNet.cs[0] chargedMobileNodes 876
scalar OsgEarthNet.cs[0] reservations 889
scalar OsgEarthNet.cs[1] usedPower 4151643.6359043
scalar OsgEarthNet.cs[1] chargedPower 4151643.6359043
scalar OsgEarthNet.cs[1] chargedMobileNodes 1033
scalar OsgEarthNet.cs[1] reservations 1047
scalar OsgEarthNet.cs[2] usedPower 8679240.6925614
scalar OsgEarthNet.cs[2] chargedPower 8679240.6925614
scalar OsgEarthNet.cs[2] chargedMobileNodes 533
scalar OsgEarthNet.cs[2] reservations 1893

