version 2
run Szenario_Hotel_Gabelbach-157-20180712-03:35:38-17548
attr configname Szenario_Hotel_Gabelbach
attr datetime 20180712-03:35:38
attr experiment Szenario_Hotel_Gabelbach
attr inifile omnetpp.ini
attr iterationvars "$replM=2, $biWeight=0.35, $replSearchM=1, $numUAVs=75"
attr iterationvarsf replM=2,biWeight=0.35,replSearchM=1,numUAVs=75-
attr measurement "$replM=2, $biWeight=0.35, $replSearchM=1, $numUAVs=75"
attr network OsgEarthNet
attr processid 17548
attr repetition 1
attr replication #1
attr resultdir results
attr runnumber 157
attr seedset 157
itervar biWeight 0.35
itervar numUAVs 75
itervar replM 2
itervar replSearchM 1
param *.osgEarthScene.scene "\"Szenario_Hotel_Gabelbach.earth\""
param *.playgroundLatitude 50.6830269
param *.playgroundLongitude 10.8538055
param *.playgroundWidth 3500m
param *.playgroundHeight 3500m
param *.cs[0].posX 3537m
param *.cs[0].posY 965m
param *.cs[0].posZ 538m
param *.cs[1].posX 312m
param *.cs[1].posY 1262m
param *.cs[1].posZ 539m
param *.cs[2].posX 2185m
param *.cs[2].posY 3026m
param *.cs[2].posZ 777m
param *.cs[3].posX 10m
param *.cs[3].posY 2200m
param *.cs[3].posZ 560m
param *.cs[4].posX 750m
param *.cs[4].posY 200m
param *.cs[4].posZ 540m
param *.cs[5].posX 2450m
param *.cs[5].posY 180m
param *.cs[5].posZ 524m
param *.cs[6].posX 3140m
param *.cs[6].posY 1790m
param *.cs[6].posZ 606m
param *.numCSs 3
param *.uav[*].replacementMethod 2
param *.uav[*].weightedSumWeight 0.35
param *.missionControl.replacementSearchMethod 1
param *.numUAVs 75
param *.numCSs 3
param *.numUAVs 100
param *.*.timeStep 10s
param *.uav[*].commandPreviewCommandCount 20
param *.missionControl.missionFiles "\"missions\\\\Szenario_WB_Hotel_Gabelbach_Mission_Hotel.waypoints,missions\\\\Szenario_WB_Hotel_Gabelbach_Mission_Kickelhahn.waypoints,missions\\\\Szenario_WB_Hotel_Gabelbach_Mission_Ilmenau_Sportplatz.waypoints,missions\\\\Szenario_WB_Hotel_Gabelbach_Mission_Manebach_Mitte.waypoints,missions\\\\Szenario_WB_Hotel_Gabelbach_Mission_Manebach_Sued.waypoints,missions\\\\Szenario_WB_Hotel_Gabelbach_Hover_HoheSchlaufe.waypoints,missions\\\\Szenario_WB_Hotel_Gabelbach_Hover_Kickelhahn.waypoints,missions\\\\Szenario_WB_Hotel_Gabelbach_Hover_Gabelbachskopf.waypoints,missions\\\\Szenario_WB_Hotel_Gabelbach_Hover_Dachskopf.waypoints\""
param *.uav[0].startX 3537m
param *.uav[0].startY 965m
param *.uav[0].startZ 539m
param *.uav[1].startX 312m
param *.uav[1].startY 1262m
param *.uav[1].startZ 540m
param *.uav[2].startX 2185m
param *.uav[2].startY 3026m
param *.uav[2].startZ 778m
param *.uav[3].startX 3537m
param *.uav[3].startY 965m
param *.uav[3].startZ 539m
param *.uav[4].startX 312m
param *.uav[4].startY 1262m
param *.uav[4].startZ 540m
param *.uav[5].startX 2185m
param *.uav[5].startY 3026m
param *.uav[5].startZ 778m
param *.uav[6].startX 3537m
param *.uav[6].startY 965m
param *.uav[6].startZ 539m
param *.uav[7].startX 312m
param *.uav[7].startY 1262m
param *.uav[7].startZ 540m
param *.uav[8].startX 2185m
param *.uav[8].startY 3026m
param *.uav[8].startZ 778m
param *.uav[9].startX 3537m
param *.uav[9].startY 965m
param *.uav[9].startZ 539m
param *.uav[10].startX 3537m
param *.uav[10].startY 965m
param *.uav[10].startZ 539m
param *.uav[11].startX 312m
param *.uav[11].startY 1262m
param *.uav[11].startZ 540m
param *.uav[12].startX 2185m
param *.uav[12].startY 3026m
param *.uav[12].startZ 778m
param *.uav[13].startX 3537m
param *.uav[13].startY 965m
param *.uav[13].startZ 539m
param *.uav[14].startX 312m
param *.uav[14].startY 1262m
param *.uav[14].startZ 540m
param *.uav[15].startX 2185m
param *.uav[15].startY 3026m
param *.uav[15].startZ 778m
param *.uav[16].startX 3537m
param *.uav[16].startY 965m
param *.uav[16].startZ 539m
param *.uav[17].startX 312m
param *.uav[17].startY 1262m
param *.uav[17].startZ 540m
param *.uav[18].startX 2185m
param *.uav[18].startY 3026m
param *.uav[18].startZ 778m
param *.uav[19].startX 3537m
param *.uav[19].startY 965m
param *.uav[19].startZ 539m
param *.uav[20].startX 3537m
param *.uav[20].startY 965m
param *.uav[20].startZ 539m
param *.uav[21].startX 312m
param *.uav[21].startY 1262m
param *.uav[21].startZ 540m
param *.uav[22].startX 2185m
param *.uav[22].startY 3026m
param *.uav[22].startZ 778m
param *.uav[23].startX 3537m
param *.uav[23].startY 965m
param *.uav[23].startZ 539m
param *.uav[24].startX 312m
param *.uav[24].startY 1262m
param *.uav[24].startZ 540m
param *.uav[25].startX 2185m
param *.uav[25].startY 3026m
param *.uav[25].startZ 778m
param *.uav[26].startX 3537m
param *.uav[26].startY 965m
param *.uav[26].startZ 539m
param *.uav[27].startX 312m
param *.uav[27].startY 1262m
param *.uav[27].startZ 540m
param *.uav[28].startX 2185m
param *.uav[28].startY 3026m
param *.uav[28].startZ 778m
param *.uav[29].startX 3537m
param *.uav[29].startY 965m
param *.uav[29].startZ 539m
param *.uav[30].startX 3537m
param *.uav[30].startY 965m
param *.uav[30].startZ 539m
param *.uav[31].startX 312m
param *.uav[31].startY 1262m
param *.uav[31].startZ 540m
param *.uav[32].startX 2185m
param *.uav[32].startY 3026m
param *.uav[32].startZ 778m
param *.uav[33].startX 3537m
param *.uav[33].startY 965m
param *.uav[33].startZ 539m
param *.uav[34].startX 312m
param *.uav[34].startY 1262m
param *.uav[34].startZ 540m
param *.uav[35].startX 2185m
param *.uav[35].startY 3026m
param *.uav[35].startZ 778m
param *.uav[36].startX 3537m
param *.uav[36].startY 965m
param *.uav[36].startZ 539m
param *.uav[37].startX 312m
param *.uav[37].startY 1262m
param *.uav[37].startZ 540m
param *.uav[38].startX 2185m
param *.uav[38].startY 3026m
param *.uav[38].startZ 778m
param *.uav[39].startX 3537m
param *.uav[39].startY 965m
param *.uav[39].startZ 539m
param *.uav[40].startX 3537m
param *.uav[40].startY 965m
param *.uav[40].startZ 539m
param *.uav[41].startX 312m
param *.uav[41].startY 1262m
param *.uav[41].startZ 540m
param *.uav[42].startX 2185m
param *.uav[42].startY 3026m
param *.uav[42].startZ 778m
param *.uav[43].startX 3537m
param *.uav[43].startY 965m
param *.uav[43].startZ 539m
param *.uav[44].startX 312m
param *.uav[44].startY 1262m
param *.uav[44].startZ 540m
param *.uav[45].startX 2185m
param *.uav[45].startY 3026m
param *.uav[45].startZ 778m
param *.uav[46].startX 3537m
param *.uav[46].startY 965m
param *.uav[46].startZ 539m
param *.uav[47].startX 312m
param *.uav[47].startY 1262m
param *.uav[47].startZ 540m
param *.uav[48].startX 2185m
param *.uav[48].startY 3026m
param *.uav[48].startZ 778m
param *.uav[49].startX 3537m
param *.uav[49].startY 965m
param *.uav[49].startZ 539m
param *.uav[50].startX 3537m
param *.uav[50].startY 965m
param *.uav[50].startZ 539m
param *.uav[51].startX 312m
param *.uav[51].startY 1262m
param *.uav[51].startZ 540m
param *.uav[52].startX 2185m
param *.uav[52].startY 3026m
param *.uav[52].startZ 778m
param *.uav[53].startX 3537m
param *.uav[53].startY 965m
param *.uav[53].startZ 539m
param *.uav[54].startX 312m
param *.uav[54].startY 1262m
param *.uav[54].startZ 540m
param *.uav[55].startX 2185m
param *.uav[55].startY 3026m
param *.uav[55].startZ 778m
param *.uav[56].startX 3537m
param *.uav[56].startY 965m
param *.uav[56].startZ 539m
param *.uav[57].startX 312m
param *.uav[57].startY 1262m
param *.uav[57].startZ 540m
param *.uav[58].startX 2185m
param *.uav[58].startY 3026m
param *.uav[58].startZ 778m
param *.uav[59].startX 3537m
param *.uav[59].startY 965m
param *.uav[59].startZ 539m
param *.uav[60].startX 3537m
param *.uav[60].startY 965m
param *.uav[60].startZ 539m
param *.uav[61].startX 312m
param *.uav[61].startY 1262m
param *.uav[61].startZ 540m
param *.uav[62].startX 2185m
param *.uav[62].startY 3026m
param *.uav[62].startZ 778m
param *.uav[63].startX 3537m
param *.uav[63].startY 965m
param *.uav[63].startZ 539m
param *.uav[64].startX 312m
param *.uav[64].startY 1262m
param *.uav[64].startZ 540m
param *.uav[65].startX 2185m
param *.uav[65].startY 3026m
param *.uav[65].startZ 778m
param *.uav[66].startX 3537m
param *.uav[66].startY 965m
param *.uav[66].startZ 539m
param *.uav[67].startX 312m
param *.uav[67].startY 1262m
param *.uav[67].startZ 540m
param *.uav[68].startX 2185m
param *.uav[68].startY 3026m
param *.uav[68].startZ 778m
param *.uav[69].startX 3537m
param *.uav[69].startY 965m
param *.uav[69].startZ 539m
param *.uav[70].startX 3537m
param *.uav[70].startY 965m
param *.uav[70].startZ 539m
param *.uav[71].startX 312m
param *.uav[71].startY 1262m
param *.uav[71].startZ 540m
param *.uav[72].startX 2185m
param *.uav[72].startY 3026m
param *.uav[72].startZ 778m
param *.uav[73].startX 3537m
param *.uav[73].startY 965m
param *.uav[73].startZ 539m
param *.uav[74].startX 312m
param *.uav[74].startY 1262m
param *.uav[74].startZ 540m
param *.uav[75].startX 2185m
param *.uav[75].startY 3026m
param *.uav[75].startZ 778m
param *.uav[76].startX 3537m
param *.uav[76].startY 965m
param *.uav[76].startZ 539m
param *.uav[77].startX 312m
param *.uav[77].startY 1262m
param *.uav[77].startZ 540m
param *.uav[78].startX 2185m
param *.uav[78].startY 3026m
param *.uav[78].startZ 778m
param *.uav[79].startX 3537m
param *.uav[79].startY 965m
param *.uav[79].startZ 539m
param *.uav[80].startX 3537m
param *.uav[80].startY 965m
param *.uav[80].startZ 539m
param *.uav[81].startX 312m
param *.uav[81].startY 1262m
param *.uav[81].startZ 540m
param *.uav[82].startX 2185m
param *.uav[82].startY 3026m
param *.uav[82].startZ 778m
param *.uav[83].startX 3537m
param *.uav[83].startY 965m
param *.uav[83].startZ 539m
param *.uav[84].startX 312m
param *.uav[84].startY 1262m
param *.uav[84].startZ 540m
param *.uav[85].startX 2185m
param *.uav[85].startY 3026m
param *.uav[85].startZ 778m
param *.uav[86].startX 3537m
param *.uav[86].startY 965m
param *.uav[86].startZ 539m
param *.uav[87].startX 312m
param *.uav[87].startY 1262m
param *.uav[87].startZ 540m
param *.uav[88].startX 2185m
param *.uav[88].startY 3026m
param *.uav[88].startZ 778m
param *.uav[89].startX 3537m
param *.uav[89].startY 965m
param *.uav[89].startZ 539m
param *.uav[90].startX 3537m
param *.uav[90].startY 965m
param *.uav[90].startZ 539m
param *.uav[91].startX 312m
param *.uav[91].startY 1262m
param *.uav[91].startZ 540m
param *.uav[92].startX 2185m
param *.uav[92].startY 3026m
param *.uav[92].startZ 778m
param *.uav[93].startX 3537m
param *.uav[93].startY 965m
param *.uav[93].startZ 539m
param *.uav[94].startX 312m
param *.uav[94].startY 1262m
param *.uav[94].startZ 540m
param *.uav[95].startX 2185m
param *.uav[95].startY 3026m
param *.uav[95].startZ 778m
param *.uav[96].startX 3537m
param *.uav[96].startY 965m
param *.uav[96].startZ 539m
param *.uav[97].startX 312m
param *.uav[97].startY 1262m
param *.uav[97].startZ 540m
param *.uav[98].startX 2185m
param *.uav[98].startY 3026m
param *.uav[98].startZ 778m
param *.uav[99].startX 3537m
param *.uav[99].startY 965m
param *.uav[99].startZ 539m
param *.osgEarthScene.scene "\"boston.earth\""
param *.playgroundLatitude 42.3558
param *.playgroundLongitude -71.0677
param *.playgroundWidth 400m
param *.playgroundHeight 200m
param *.channelController.connectionColor "\"#0000FF40\""
param *.channelController.showConnections false
param *.uav[*].modelURL "\"quadrocopter.small.obj.15.scale.0,0,90.rot\""
param *.uav[*].labelColor "\"#FF7C00CC\""
param *.uav[*].label2Color "\"#FF7C00EE\""
param *.uav[*].batteryCapacity 5200mAh
param *.uav[*].batteryRemaining uav[index].batteryCapacity
param *.uav[*].predictionQuantile 0.95
param *.uav[*].replacementMethod 2
param *.uav[*].weightedSumWeight 0.5
param *.cs[*].modelURL "\"chargingstation_v1.osgt.2.scale.0,0,0.rot.0,0,-15e-1.trans\""
param *.cs[*].spotsWaiting 999
param *.cs[*].spotsCharging 999
param *.cs[*].chargeEffectivenessPercentage 100
param *.cs[*].nonLinearPhaseStartPercentage 85
param *.cs[*].chargeCurrent 6.0A
param *.cs[*].prioritizeFastCharge true
param *.missionControl.replacementSearchMethod 0
param *.*.timeStep 9s

scalar OsgEarthNet.uav[0] utilizationSecMission 760.62515258028
scalar OsgEarthNet.uav[0] utilizationSecMaintenance 280.27216773088
scalar OsgEarthNet.uav[0] utilizationSecCharge 3650
scalar OsgEarthNet.uav[0] utilizationSecIdle 254509.10167969
scalar OsgEarthNet.uav[0] utilizationEnergyMission 3483.8475952148
scalar OsgEarthNet.uav[0] utilizationEnergyMaintenance 1286.6504325867
scalar OsgEarthNet.uav[0] utilizationEnergyCharge 4770.4990234375
scalar OsgEarthNet.uav[0] utilizationEnergyOverdrawMission 0
scalar OsgEarthNet.uav[0] utilizationEnergyOverdrawMaintenance 0
scalar OsgEarthNet.uav[0] utilizationCountMissions 1
scalar OsgEarthNet.uav[0] utilizationCountManeuversMission 12
scalar OsgEarthNet.uav[0] utilizationCountManeuversMaintenance 2
scalar OsgEarthNet.uav[0] utilizationCountChargeState 1
scalar OsgEarthNet.uav[0] utilizationCountOverdrawnAfterMission 0
scalar OsgEarthNet.uav[0] utilizationCountIdleState 2
scalar OsgEarthNet.uav[0] utilizationFail 0
scalar OsgEarthNet.uav[0] simulationTime 259200
scalar OsgEarthNet.uav[1] utilizationSecMission 28689.945526128
scalar OsgEarthNet.uav[1] utilizationSecMaintenance 19131.845405309
scalar OsgEarthNet.uav[1] utilizationSecCharge 185076.20506856
scalar OsgEarthNet.uav[1] utilizationSecIdle 26302.003
scalar OsgEarthNet.uav[1] utilizationEnergyMission 140292.44459152
scalar OsgEarthNet.uav[1] utilizationEnergyMaintenance 91241.995388031
scalar OsgEarthNet.uav[1] utilizationEnergyCharge 227163.27844238
scalar OsgEarthNet.uav[1] utilizationEnergyOverdrawMission 0
scalar OsgEarthNet.uav[1] utilizationEnergyOverdrawMaintenance 0
scalar OsgEarthNet.uav[1] utilizationCountMissions 60
scalar OsgEarthNet.uav[1] utilizationCountManeuversMission 873
scalar OsgEarthNet.uav[1] utilizationCountManeuversMaintenance 120
scalar OsgEarthNet.uav[1] utilizationCountChargeState 60
scalar OsgEarthNet.uav[1] utilizationCountOverdrawnAfterMission 0
scalar OsgEarthNet.uav[1] utilizationCountIdleState 60
scalar OsgEarthNet.uav[1] utilizationFail 0
scalar OsgEarthNet.uav[1] simulationTime 259200
scalar OsgEarthNet.uav[2] utilizationSecMission 40019.676414124
scalar OsgEarthNet.uav[2] utilizationSecMaintenance 16412.374570203
scalar OsgEarthNet.uav[2] utilizationSecCharge 197205.94401567
scalar OsgEarthNet.uav[2] utilizationSecIdle 5562.004
scalar OsgEarthNet.uav[2] utilizationEnergyMission 195911.95762253
scalar OsgEarthNet.uav[2] utilizationEnergyMaintenance 75521.955478668
scalar OsgEarthNet.uav[2] utilizationEnergyCharge 270790.72949219
scalar OsgEarthNet.uav[2] utilizationEnergyOverdrawMission 0
scalar OsgEarthNet.uav[2] utilizationEnergyOverdrawMaintenance 0
scalar OsgEarthNet.uav[2] utilizationCountMissions 59
scalar OsgEarthNet.uav[2] utilizationCountManeuversMission 1325
scalar OsgEarthNet.uav[2] utilizationCountManeuversMaintenance 118
scalar OsgEarthNet.uav[2] utilizationCountChargeState 59
scalar OsgEarthNet.uav[2] utilizationCountOverdrawnAfterMission 0
scalar OsgEarthNet.uav[2] utilizationCountIdleState 22
scalar OsgEarthNet.uav[2] utilizationFail 0
scalar OsgEarthNet.uav[2] simulationTime 259200
scalar OsgEarthNet.uav[3] utilizationSecMission 19942.761090356
scalar OsgEarthNet.uav[3] utilizationSecMaintenance 9090.9539426055
scalar OsgEarthNet.uav[3] utilizationSecCharge 102954.27996704
scalar OsgEarthNet.uav[3] utilizationSecIdle 127212.004
scalar OsgEarthNet.uav[3] utilizationEnergyMission 95400.30758667
scalar OsgEarthNet.uav[3] utilizationEnergyMaintenance 42876.927375793
scalar OsgEarthNet.uav[3] utilizationEnergyCharge 133143.10479736
scalar OsgEarthNet.uav[3] utilizationEnergyOverdrawMission 0
scalar OsgEarthNet.uav[3] utilizationEnergyOverdrawMaintenance 0
scalar OsgEarthNet.uav[3] utilizationCountMissions 30
scalar OsgEarthNet.uav[3] utilizationCountManeuversMission 472
scalar OsgEarthNet.uav[3] utilizationCountManeuversMaintenance 60
scalar OsgEarthNet.uav[3] utilizationCountChargeState 30
scalar OsgEarthNet.uav[3] utilizationCountOverdrawnAfterMission 0
scalar OsgEarthNet.uav[3] utilizationCountIdleState 30
scalar OsgEarthNet.uav[3] utilizationFail 0
scalar OsgEarthNet.uav[3] simulationTime 259200
scalar OsgEarthNet.uav[4] utilizationSecMission 29149.227762897
scalar OsgEarthNet.uav[4] utilizationSecMaintenance 18568.902718054
scalar OsgEarthNet.uav[4] utilizationSecCharge 184694.55243722
scalar OsgEarthNet.uav[4] utilizationSecIdle 26787.316081831
scalar OsgEarthNet.uav[4] utilizationEnergyMission 141624.28717041
scalar OsgEarthNet.uav[4] utilizationEnergyMaintenance 88107.343429565
scalar OsgEarthNet.uav[4] utilizationEnergyCharge 228426.66772461
scalar OsgEarthNet.uav[4] utilizationEnergyOverdrawMission 0
scalar OsgEarthNet.uav[4] utilizationEnergyOverdrawMaintenance 0
scalar OsgEarthNet.uav[4] utilizationCountMissions 59
scalar OsgEarthNet.uav[4] utilizationCountManeuversMission 866
scalar OsgEarthNet.uav[4] utilizationCountManeuversMaintenance 118
scalar OsgEarthNet.uav[4] utilizationCountChargeState 59
scalar OsgEarthNet.uav[4] utilizationCountOverdrawnAfterMission 0
scalar OsgEarthNet.uav[4] utilizationCountIdleState 58
scalar OsgEarthNet.uav[4] utilizationFail 0
scalar OsgEarthNet.uav[4] simulationTime 259200
scalar OsgEarthNet.uav[5] utilizationSecMission 39157.449638009
scalar OsgEarthNet.uav[5] utilizationSecMaintenance 18071.853837089
scalar OsgEarthNet.uav[5] utilizationSecCharge 199558.6955249
scalar OsgEarthNet.uav[5] utilizationSecIdle 2412
scalar OsgEarthNet.uav[5] utilizationEnergyMission 189449.06867981
scalar OsgEarthNet.uav[5] utilizationEnergyMaintenance 84291.549316406
scalar OsgEarthNet.uav[5] utilizationEnergyCharge 273450.92749023
scalar OsgEarthNet.uav[5] utilizationEnergyOverdrawMission 0
scalar OsgEarthNet.uav[5] utilizationEnergyOverdrawMaintenance 0
scalar OsgEarthNet.uav[5] utilizationCountMissions 60
scalar OsgEarthNet.uav[5] utilizationCountManeuversMission 1352
scalar OsgEarthNet.uav[5] utilizationCountManeuversMaintenance 120
scalar OsgEarthNet.uav[5] utilizationCountChargeState 60
scalar OsgEarthNet.uav[5] utilizationCountOverdrawnAfterMission 0
scalar OsgEarthNet.uav[5] utilizationCountIdleState 17
scalar OsgEarthNet.uav[5] utilizationFail 0
scalar OsgEarthNet.uav[5] simulationTime 259200
scalar OsgEarthNet.uav[6] utilizationSecMission 18856.618639633
scalar OsgEarthNet.uav[6] utilizationSecMaintenance 13147.70717797
scalar OsgEarthNet.uav[6] utilizationSecCharge 118393.6711824
scalar OsgEarthNet.uav[6] utilizationSecIdle 108802.002
scalar OsgEarthNet.uav[6] utilizationEnergyMission 93461.227642059
scalar OsgEarthNet.uav[6] utilizationEnergyMaintenance 61954.591117859
scalar OsgEarthNet.uav[6] utilizationEnergyCharge 153882.67260742
scalar OsgEarthNet.uav[6] utilizationEnergyOverdrawMission 0
scalar OsgEarthNet.uav[6] utilizationEnergyOverdrawMaintenance 0
scalar OsgEarthNet.uav[6] utilizationCountMissions 34
scalar OsgEarthNet.uav[6] utilizationCountManeuversMission 661
scalar OsgEarthNet.uav[6] utilizationCountManeuversMaintenance 68
scalar OsgEarthNet.uav[6] utilizationCountChargeState 34
scalar OsgEarthNet.uav[6] utilizationCountOverdrawnAfterMission 0
scalar OsgEarthNet.uav[6] utilizationCountIdleState 34
scalar OsgEarthNet.uav[6] utilizationFail 0
scalar OsgEarthNet.uav[6] simulationTime 259200
scalar OsgEarthNet.uav[7] utilizationSecMission 29600.914931342
scalar OsgEarthNet.uav[7] utilizationSecMaintenance 18463.384929291
scalar OsgEarthNet.uav[7] utilizationSecCharge 183043.69213937
scalar OsgEarthNet.uav[7] utilizationSecIdle 28092.007
scalar OsgEarthNet.uav[7] utilizationEnergyMission 142040.53182983
scalar OsgEarthNet.uav[7] utilizationEnergyMaintenance 87317.557762146
scalar OsgEarthNet.uav[7] utilizationEnergyCharge 227150.68395996
scalar OsgEarthNet.uav[7] utilizationEnergyOverdrawMission 0
scalar OsgEarthNet.uav[7] utilizationEnergyOverdrawMaintenance 0
scalar OsgEarthNet.uav[7] utilizationCountMissions 58
scalar OsgEarthNet.uav[7] utilizationCountManeuversMission 889
scalar OsgEarthNet.uav[7] utilizationCountManeuversMaintenance 116
scalar OsgEarthNet.uav[7] utilizationCountChargeState 58
scalar OsgEarthNet.uav[7] utilizationCountOverdrawnAfterMission 0
scalar OsgEarthNet.uav[7] utilizationCountIdleState 58
scalar OsgEarthNet.uav[7] utilizationFail 0
scalar OsgEarthNet.uav[7] simulationTime 259200
scalar OsgEarthNet.uav[8] utilizationSecMission 40501.416610565
scalar OsgEarthNet.uav[8] utilizationSecMaintenance 15754.388597375
scalar OsgEarthNet.uav[8] utilizationSecCharge 198402.19379206
scalar OsgEarthNet.uav[8] utilizationSecIdle 4542
scalar OsgEarthNet.uav[8] utilizationEnergyMission 197500.97768021
scalar OsgEarthNet.uav[8] utilizationEnergyMaintenance 71292.335483551
scalar OsgEarthNet.uav[8] utilizationEnergyCharge 269053.40234375
scalar OsgEarthNet.uav[8] utilizationEnergyOverdrawMission 0
scalar OsgEarthNet.uav[8] utilizationEnergyOverdrawMaintenance 0
scalar OsgEarthNet.uav[8] utilizationCountMissions 59
scalar OsgEarthNet.uav[8] utilizationCountManeuversMission 1427
scalar OsgEarthNet.uav[8] utilizationCountManeuversMaintenance 118
scalar OsgEarthNet.uav[8] utilizationCountChargeState 59
scalar OsgEarthNet.uav[8] utilizationCountOverdrawnAfterMission 0
scalar OsgEarthNet.uav[8] utilizationCountIdleState 30
scalar OsgEarthNet.uav[8] utilizationFail 0
scalar OsgEarthNet.uav[8] simulationTime 259200
scalar OsgEarthNet.uav[9] utilizationSecMission 16015.259259393
scalar OsgEarthNet.uav[9] utilizationSecMaintenance 11257.63180647
scalar OsgEarthNet.uav[9] utilizationSecCharge 99645.094934137
scalar OsgEarthNet.uav[9] utilizationSecIdle 132282.013
scalar OsgEarthNet.uav[9] utilizationEnergyMission 78377.656215668
scalar OsgEarthNet.uav[9] utilizationEnergyMaintenance 53765.854579925
scalar OsgEarthNet.uav[9] utilizationEnergyCharge 129035.90600586
scalar OsgEarthNet.uav[9] utilizationEnergyOverdrawMission 0
scalar OsgEarthNet.uav[9] utilizationEnergyOverdrawMaintenance 0
scalar OsgEarthNet.uav[9] utilizationCountMissions 29
scalar OsgEarthNet.uav[9] utilizationCountManeuversMission 588
scalar OsgEarthNet.uav[9] utilizationCountManeuversMaintenance 58
scalar OsgEarthNet.uav[9] utilizationCountChargeState 29
scalar OsgEarthNet.uav[9] utilizationCountOverdrawnAfterMission 0
scalar OsgEarthNet.uav[9] utilizationCountIdleState 29
scalar OsgEarthNet.uav[9] utilizationFail 0
scalar OsgEarthNet.uav[9] simulationTime 259200
scalar OsgEarthNet.uav[10] utilizationSecMission 29736.887832971
scalar OsgEarthNet.uav[10] utilizationSecMaintenance 17338.249746769
scalar OsgEarthNet.uav[10] utilizationSecCharge 180290
scalar OsgEarthNet.uav[10] utilizationSecIdle 31834.86142026
scalar OsgEarthNet.uav[10] utilizationEnergyMission 142428.31544113
scalar OsgEarthNet.uav[10] utilizationEnergyMaintenance 83165.115756973
scalar OsgEarthNet.uav[10] utilizationEnergyCharge 222426.83911133
scalar OsgEarthNet.uav[10] utilizationEnergyOverdrawMission 0
scalar OsgEarthNet.uav[10] utilizationEnergyOverdrawMaintenance 0
scalar OsgEarthNet.uav[10] utilizationCountMissions 58
scalar OsgEarthNet.uav[10] utilizationCountManeuversMission 795
scalar OsgEarthNet.uav[10] utilizationCountManeuversMaintenance 116
scalar OsgEarthNet.uav[10] utilizationCountChargeState 57
scalar OsgEarthNet.uav[10] utilizationCountOverdrawnAfterMission 0
scalar OsgEarthNet.uav[10] utilizationCountIdleState 57
scalar OsgEarthNet.uav[10] utilizationFail 0
scalar OsgEarthNet.uav[10] simulationTime 259200
scalar OsgEarthNet.uav[11] utilizationSecMission 31153.183082416
scalar OsgEarthNet.uav[11] utilizationSecMaintenance 16856.153363098
scalar OsgEarthNet.uav[11] utilizationSecCharge 183572.30895161
scalar OsgEarthNet.uav[11] utilizationSecIdle 27618.353602879
scalar OsgEarthNet.uav[11] utilizationEnergyMission 150361.43030548
scalar OsgEarthNet.uav[11] utilizationEnergyMaintenance 79996.006328583
scalar OsgEarthNet.uav[11] utilizationEnergyCharge 230197.15209961
scalar OsgEarthNet.uav[11] utilizationEnergyOverdrawMission 0
scalar OsgEarthNet.uav[11] utilizationEnergyOverdrawMaintenance 0
scalar OsgEarthNet.uav[11] utilizationCountMissions 56
scalar OsgEarthNet.uav[11] utilizationCountManeuversMission 877
scalar OsgEarthNet.uav[11] utilizationCountManeuversMaintenance 112
scalar OsgEarthNet.uav[11] utilizationCountChargeState 56
scalar OsgEarthNet.uav[11] utilizationCountOverdrawnAfterMission 0
scalar OsgEarthNet.uav[11] utilizationCountIdleState 55
scalar OsgEarthNet.uav[11] utilizationFail 0
scalar OsgEarthNet.uav[11] simulationTime 259200
scalar OsgEarthNet.uav[12] utilizationSecMission 39130.787615996
scalar OsgEarthNet.uav[12] utilizationSecMaintenance 17327.207384004
scalar OsgEarthNet.uav[12] utilizationSecCharge 196330
scalar OsgEarthNet.uav[12] utilizationSecIdle 6412.004
scalar OsgEarthNet.uav[12] utilizationEnergyMission 191358.91827545
scalar OsgEarthNet.uav[12] utilizationEnergyMaintenance 79275.510791779
scalar OsgEarthNet.uav[12] utilizationEnergyCharge 267556.35595703
scalar OsgEarthNet.uav[12] utilizationEnergyOverdrawMission 0
scalar OsgEarthNet.uav[12] utilizationEnergyOverdrawMaintenance 0
scalar OsgEarthNet.uav[12] utilizationCountMissions 59
scalar OsgEarthNet.uav[12] utilizationCountManeuversMission 1338
scalar OsgEarthNet.uav[12] utilizationCountManeuversMaintenance 119
scalar OsgEarthNet.uav[12] utilizationCountChargeState 59
scalar OsgEarthNet.uav[12] utilizationCountOverdrawnAfterMission 0
scalar OsgEarthNet.uav[12] utilizationCountIdleState 22
scalar OsgEarthNet.uav[12] utilizationFail 0
scalar OsgEarthNet.uav[12] simulationTime 259200
scalar OsgEarthNet.uav[13] utilizationSecMission 20588.126983544
scalar OsgEarthNet.uav[13] utilizationSecMaintenance 13238.885632578
scalar OsgEarthNet.uav[13] utilizationSecCharge 123910.98138388
scalar OsgEarthNet.uav[13] utilizationSecIdle 101462.005
scalar OsgEarthNet.uav[13] utilizationEnergyMission 100639.70821762
scalar OsgEarthNet.uav[13] utilizationEnergyMaintenance 63387.871170044
scalar OsgEarthNet.uav[13] utilizationEnergyCharge 160077.79907227
scalar OsgEarthNet.uav[13] utilizationEnergyOverdrawMission 0
scalar OsgEarthNet.uav[13] utilizationEnergyOverdrawMaintenance 0
scalar OsgEarthNet.uav[13] utilizationCountMissions 36
scalar OsgEarthNet.uav[13] utilizationCountManeuversMission 691
scalar OsgEarthNet.uav[13] utilizationCountManeuversMaintenance 72
scalar OsgEarthNet.uav[13] utilizationCountChargeState 36
scalar OsgEarthNet.uav[13] utilizationCountOverdrawnAfterMission 0
scalar OsgEarthNet.uav[13] utilizationCountIdleState 36
scalar OsgEarthNet.uav[13] utilizationFail 0
scalar OsgEarthNet.uav[13] simulationTime 259200
scalar OsgEarthNet.uav[14] utilizationSecMission 31214.965934932
scalar OsgEarthNet.uav[14] utilizationSecMaintenance 17304.135180816
scalar OsgEarthNet.uav[14] utilizationSecCharge 183947.22970626
scalar OsgEarthNet.uav[14] utilizationSecIdle 26733.668177988
scalar OsgEarthNet.uav[14] utilizationEnergyMission 149441.38161087
scalar OsgEarthNet.uav[14] utilizationEnergyMaintenance 82712.342815399
scalar OsgEarthNet.uav[14] utilizationEnergyCharge 232256.41894531
scalar OsgEarthNet.uav[14] utilizationEnergyOverdrawMission 0
scalar OsgEarthNet.uav[14] utilizationEnergyOverdrawMaintenance 0
scalar OsgEarthNet.uav[14] utilizationCountMissions 56
scalar OsgEarthNet.uav[14] utilizationCountManeuversMission 900
scalar OsgEarthNet.uav[14] utilizationCountManeuversMaintenance 112
scalar OsgEarthNet.uav[14] utilizationCountChargeState 56
scalar OsgEarthNet.uav[14] utilizationCountOverdrawnAfterMission 0
scalar OsgEarthNet.uav[14] utilizationCountIdleState 56
scalar OsgEarthNet.uav[14] utilizationFail 0
scalar OsgEarthNet.uav[14] simulationTime 259200
scalar OsgEarthNet.uav[15] utilizationSecMission 40322.152882784
scalar OsgEarthNet.uav[15] utilizationSecMaintenance 17010.277126084
scalar OsgEarthNet.uav[15] utilizationSecCharge 198195.56899113
scalar OsgEarthNet.uav[15] utilizationSecIdle 3672
scalar OsgEarthNet.uav[15] utilizationEnergyMission 197356.44813156
scalar OsgEarthNet.uav[15] utilizationEnergyMaintenance 78881.214519501
scalar OsgEarthNet.uav[15] utilizationEnergyCharge 273123.59375
scalar OsgEarthNet.uav[15] utilizationEnergyOverdrawMission 0
scalar OsgEarthNet.uav[15] utilizationEnergyOverdrawMaintenance 0
scalar OsgEarthNet.uav[15] utilizationCountMissions 60
scalar OsgEarthNet.uav[15] utilizationCountManeuversMission 1320
scalar OsgEarthNet.uav[15] utilizationCountManeuversMaintenance 119
scalar OsgEarthNet.uav[15] utilizationCountChargeState 60
scalar OsgEarthNet.uav[15] utilizationCountOverdrawnAfterMission 0
scalar OsgEarthNet.uav[15] utilizationCountIdleState 21
scalar OsgEarthNet.uav[15] utilizationFail 0
scalar OsgEarthNet.uav[15] simulationTime 259200
scalar OsgEarthNet.uav[16] utilizationSecMission 40638.174844838
scalar OsgEarthNet.uav[16] utilizationSecMaintenance 16759.824155162
scalar OsgEarthNet.uav[16] utilizationSecCharge 198850
scalar OsgEarthNet.uav[16] utilizationSecIdle 2952
scalar OsgEarthNet.uav[16] utilizationEnergyMission 195949.96410051
scalar OsgEarthNet.uav[16] utilizationEnergyMaintenance 76520.236820221
scalar OsgEarthNet.uav[16] utilizationEnergyCharge 270741.69140625
scalar OsgEarthNet.uav[16] utilizationEnergyOverdrawMission 0
scalar OsgEarthNet.uav[16] utilizationEnergyOverdrawMaintenance 0
scalar OsgEarthNet.uav[16] utilizationCountMissions 59
scalar OsgEarthNet.uav[16] utilizationCountManeuversMission 1293
scalar OsgEarthNet.uav[16] utilizationCountManeuversMaintenance 118
scalar OsgEarthNet.uav[16] utilizationCountChargeState 59
scalar OsgEarthNet.uav[16] utilizationCountOverdrawnAfterMission 0
scalar OsgEarthNet.uav[16] utilizationCountIdleState 24
scalar OsgEarthNet.uav[16] utilizationFail 0
scalar OsgEarthNet.uav[16] simulationTime 259200
scalar OsgEarthNet.uav[17] utilizationSecMission 32971.256019189
scalar OsgEarthNet.uav[17] utilizationSecMaintenance 16516.742980811
scalar OsgEarthNet.uav[17] utilizationSecCharge 186410
scalar OsgEarthNet.uav[17] utilizationSecIdle 23302
scalar OsgEarthNet.uav[17] utilizationEnergyMission 158089.07620884
scalar OsgEarthNet.uav[17] utilizationEnergyMaintenance 78628.868713379
scalar OsgEarthNet.uav[17] utilizationEnergyCharge 234941.76074219
scalar OsgEarthNet.uav[17] utilizationEnergyOverdrawMission 0
scalar OsgEarthNet.uav[17] utilizationEnergyOverdrawMaintenance 0
scalar OsgEarthNet.uav[17] utilizationCountMissions 56
scalar OsgEarthNet.uav[17] utilizationCountManeuversMission 862
scalar OsgEarthNet.uav[17] utilizationCountManeuversMaintenance 112
scalar OsgEarthNet.uav[17] utilizationCountChargeState 56
scalar OsgEarthNet.uav[17] utilizationCountOverdrawnAfterMission 0
scalar OsgEarthNet.uav[17] utilizationCountIdleState 57
scalar OsgEarthNet.uav[17] utilizationFail 0
scalar OsgEarthNet.uav[17] simulationTime 259200
scalar OsgEarthNet.uav[18] utilizationSecMission 40748.814795874
scalar OsgEarthNet.uav[18] utilizationSecMaintenance 15771.611430779
scalar OsgEarthNet.uav[18] utilizationSecCharge 196710.39766294
scalar OsgEarthNet.uav[18] utilizationSecIdle 5969.1751104107
scalar OsgEarthNet.uav[18] utilizationEnergyMission 199538.9505043
scalar OsgEarthNet.uav[18] utilizationEnergyMaintenance 72438.951725006
scalar OsgEarthNet.uav[18] utilizationEnergyCharge 266719.78973389
scalar OsgEarthNet.uav[18] utilizationEnergyOverdrawMission 0
scalar OsgEarthNet.uav[18] utilizationEnergyOverdrawMaintenance 0
scalar OsgEarthNet.uav[18] utilizationCountMissions 59
scalar OsgEarthNet.uav[18] utilizationCountManeuversMission 1251
scalar OsgEarthNet.uav[18] utilizationCountManeuversMaintenance 118
scalar OsgEarthNet.uav[18] utilizationCountChargeState 59
scalar OsgEarthNet.uav[18] utilizationCountOverdrawnAfterMission 0
scalar OsgEarthNet.uav[18] utilizationCountIdleState 25
scalar OsgEarthNet.uav[18] utilizationFail 0
scalar OsgEarthNet.uav[18] simulationTime 259200
scalar OsgEarthNet.uav[19] utilizationSecMission 17016.618639633
scalar OsgEarthNet.uav[19] utilizationSecMaintenance 11270.612948603
scalar OsgEarthNet.uav[19] utilizationSecCharge 105510
scalar OsgEarthNet.uav[19] utilizationSecIdle 125402.76741176
scalar OsgEarthNet.uav[19] utilizationEnergyMission 80845.539089203
scalar OsgEarthNet.uav[19] utilizationEnergyMaintenance 53518.748390198
scalar OsgEarthNet.uav[19] utilizationEnergyCharge 135990.85888672
scalar OsgEarthNet.uav[19] utilizationEnergyOverdrawMission 0
scalar OsgEarthNet.uav[19] utilizationEnergyOverdrawMaintenance 0
scalar OsgEarthNet.uav[19] utilizationCountMissions 30
scalar OsgEarthNet.uav[19] utilizationCountManeuversMission 569
scalar OsgEarthNet.uav[19] utilizationCountManeuversMaintenance 60
scalar OsgEarthNet.uav[19] utilizationCountChargeState 30
scalar OsgEarthNet.uav[19] utilizationCountOverdrawnAfterMission 0
scalar OsgEarthNet.uav[19] utilizationCountIdleState 31
scalar OsgEarthNet.uav[19] utilizationFail 0
scalar OsgEarthNet.uav[19] simulationTime 259200
scalar OsgEarthNet.uav[20] utilizationSecMission 18106.876678383
scalar OsgEarthNet.uav[20] utilizationSecMaintenance 12045.037142783
scalar OsgEarthNet.uav[20] utilizationSecCharge 113480
scalar OsgEarthNet.uav[20] utilizationSecIdle 115568.08517883
scalar OsgEarthNet.uav[20] utilizationEnergyMission 88736.492385864
scalar OsgEarthNet.uav[20] utilizationEnergyMaintenance 57723.32901001
scalar OsgEarthNet.uav[20] utilizationEnergyCharge 146743.03173828
scalar OsgEarthNet.uav[20] utilizationEnergyOverdrawMission 0
scalar OsgEarthNet.uav[20] utilizationEnergyOverdrawMaintenance 0
scalar OsgEarthNet.uav[20] utilizationCountMissions 32
scalar OsgEarthNet.uav[20] utilizationCountManeuversMission 619
scalar OsgEarthNet.uav[20] utilizationCountManeuversMaintenance 64
scalar OsgEarthNet.uav[20] utilizationCountChargeState 32
scalar OsgEarthNet.uav[20] utilizationCountOverdrawnAfterMission 0
scalar OsgEarthNet.uav[20] utilizationCountIdleState 33
scalar OsgEarthNet.uav[20] utilizationFail 0
scalar OsgEarthNet.uav[20] simulationTime 259200
scalar OsgEarthNet.uav[21] utilizationSecMission 31738.513194515
scalar OsgEarthNet.uav[21] utilizationSecMaintenance 17159.690971386
scalar OsgEarthNet.uav[21] utilizationSecCharge 186100
scalar OsgEarthNet.uav[21] utilizationSecIdle 24201.794834099
scalar OsgEarthNet.uav[21] utilizationEnergyMission 152307.8384285
scalar OsgEarthNet.uav[21] utilizationEnergyMaintenance 81477.264247949
scalar OsgEarthNet.uav[21] utilizationEnergyCharge 234550.48730469
scalar OsgEarthNet.uav[21] utilizationEnergyOverdrawMission 0
scalar OsgEarthNet.uav[21] utilizationEnergyOverdrawMaintenance 0
scalar OsgEarthNet.uav[21] utilizationCountMissions 56
scalar OsgEarthNet.uav[21] utilizationCountManeuversMission 890
scalar OsgEarthNet.uav[21] utilizationCountManeuversMaintenance 113
scalar OsgEarthNet.uav[21] utilizationCountChargeState 56
scalar OsgEarthNet.uav[21] utilizationCountOverdrawnAfterMission 0
scalar OsgEarthNet.uav[21] utilizationCountIdleState 57
scalar OsgEarthNet.uav[21] utilizationFail 0
scalar OsgEarthNet.uav[21] simulationTime 259200
scalar OsgEarthNet.uav[22] utilizationSecMission 40768.711179334
scalar OsgEarthNet.uav[22] utilizationSecMaintenance 15640.503378964
scalar OsgEarthNet.uav[22] utilizationSecCharge 196858.7784417
scalar OsgEarthNet.uav[22] utilizationSecIdle 5932.006
scalar OsgEarthNet.uav[22] utilizationEnergyMission 196073.72958374
scalar OsgEarthNet.uav[22] utilizationEnergyMaintenance 71081.083320618
scalar OsgEarthNet.uav[22] utilizationEnergyCharge 266525.27001953
scalar OsgEarthNet.uav[22] utilizationEnergyOverdrawMission 0
scalar OsgEarthNet.uav[22] utilizationEnergyOverdrawMaintenance 0
scalar OsgEarthNet.uav[22] utilizationCountMissions 58
scalar OsgEarthNet.uav[22] utilizationCountManeuversMission 1147
scalar OsgEarthNet.uav[22] utilizationCountManeuversMaintenance 116
scalar OsgEarthNet.uav[22] utilizationCountChargeState 58
scalar OsgEarthNet.uav[22] utilizationCountOverdrawnAfterMission 0
scalar OsgEarthNet.uav[22] utilizationCountIdleState 27
scalar OsgEarthNet.uav[22] utilizationFail 0
scalar OsgEarthNet.uav[22] simulationTime 259200
scalar OsgEarthNet.uav[23] utilizationSecMission 23277.130092936
scalar OsgEarthNet.uav[23] utilizationSecMaintenance 14472.98693157
scalar OsgEarthNet.uav[23] utilizationSecCharge 139407.88197549
scalar OsgEarthNet.uav[23] utilizationSecIdle 82042
scalar OsgEarthNet.uav[23] utilizationEnergyMission 112586.55360794
scalar OsgEarthNet.uav[23] utilizationEnergyMaintenance 68973.111083984
scalar OsgEarthNet.uav[23] utilizationEnergyCharge 180501.82470703
scalar OsgEarthNet.uav[23] utilizationEnergyOverdrawMission 0
scalar OsgEarthNet.uav[23] utilizationEnergyOverdrawMaintenance 0
scalar OsgEarthNet.uav[23] utilizationCountMissions 40
scalar OsgEarthNet.uav[23] utilizationCountManeuversMission 757
scalar OsgEarthNet.uav[23] utilizationCountManeuversMaintenance 79
scalar OsgEarthNet.uav[23] utilizationCountChargeState 40
scalar OsgEarthNet.uav[23] utilizationCountOverdrawnAfterMission 0
scalar OsgEarthNet.uav[23] utilizationCountIdleState 40
scalar OsgEarthNet.uav[23] utilizationFail 0
scalar OsgEarthNet.uav[23] simulationTime 259200
scalar OsgEarthNet.uav[24] utilizationSecMission 30633.989310358
scalar OsgEarthNet.uav[24] utilizationSecMaintenance 16475.708380611
scalar OsgEarthNet.uav[24] utilizationSecCharge 182370
scalar OsgEarthNet.uav[24] utilizationSecIdle 29720.301309031
scalar OsgEarthNet.uav[24] utilizationEnergyMission 146508.49472809
scalar OsgEarthNet.uav[24] utilizationEnergyMaintenance 78702.106449127
scalar OsgEarthNet.uav[24] utilizationEnergyCharge 227953.15234375
scalar OsgEarthNet.uav[24] utilizationEnergyOverdrawMission 0
scalar OsgEarthNet.uav[24] utilizationEnergyOverdrawMaintenance 0
scalar OsgEarthNet.uav[24] utilizationCountMissions 56
scalar OsgEarthNet.uav[24] utilizationCountManeuversMission 814
scalar OsgEarthNet.uav[24] utilizationCountManeuversMaintenance 112
scalar OsgEarthNet.uav[24] utilizationCountChargeState 56
scalar OsgEarthNet.uav[24] utilizationCountOverdrawnAfterMission 0
scalar OsgEarthNet.uav[24] utilizationCountIdleState 57
scalar OsgEarthNet.uav[24] utilizationFail 0
scalar OsgEarthNet.uav[24] simulationTime 259200
scalar OsgEarthNet.uav[25] utilizationSecMission 40065.486490043
scalar OsgEarthNet.uav[25] utilizationSecMaintenance 15935.087162666
scalar OsgEarthNet.uav[25] utilizationSecCharge 197320
scalar OsgEarthNet.uav[25] utilizationSecIdle 5879.4253472904
scalar OsgEarthNet.uav[25] utilizationEnergyMission 193785.91271118
scalar OsgEarthNet.uav[25] utilizationEnergyMaintenance 72916.244758606
scalar OsgEarthNet.uav[25] utilizationEnergyCharge 267366.5546875
scalar OsgEarthNet.uav[25] utilizationEnergyOverdrawMission 0
scalar OsgEarthNet.uav[25] utilizationEnergyOverdrawMaintenance 0
scalar OsgEarthNet.uav[25] utilizationCountMissions 58
scalar OsgEarthNet.uav[25] utilizationCountManeuversMission 1286
scalar OsgEarthNet.uav[25] utilizationCountManeuversMaintenance 117
scalar OsgEarthNet.uav[25] utilizationCountChargeState 58
scalar OsgEarthNet.uav[25] utilizationCountOverdrawnAfterMission 0
scalar OsgEarthNet.uav[25] utilizationCountIdleState 23
scalar OsgEarthNet.uav[25] utilizationFail 0
scalar OsgEarthNet.uav[25] simulationTime 259200
scalar OsgEarthNet.uav[26] utilizationSecMission 20510.002441285
scalar OsgEarthNet.uav[26] utilizationSecMaintenance 11581.285628739
scalar OsgEarthNet.uav[26] utilizationSecCharge 119570
scalar OsgEarthNet.uav[26] utilizationSecIdle 107538.71092998
scalar OsgEarthNet.uav[26] utilizationEnergyMission 97654.343418121
scalar OsgEarthNet.uav[26] utilizationEnergyMaintenance 55273.695793152
scalar OsgEarthNet.uav[26] utilizationEnergyCharge 154076.98828125
scalar OsgEarthNet.uav[26] utilizationEnergyOverdrawMission 0
scalar OsgEarthNet.uav[26] utilizationEnergyOverdrawMaintenance 0
scalar OsgEarthNet.uav[26] utilizationCountMissions 34
scalar OsgEarthNet.uav[26] utilizationCountManeuversMission 609
scalar OsgEarthNet.uav[26] utilizationCountManeuversMaintenance 68
scalar OsgEarthNet.uav[26] utilizationCountChargeState 34
scalar OsgEarthNet.uav[26] utilizationCountOverdrawnAfterMission 0
scalar OsgEarthNet.uav[26] utilizationCountIdleState 35
scalar OsgEarthNet.uav[26] utilizationFail 0
scalar OsgEarthNet.uav[26] simulationTime 259200
scalar OsgEarthNet.uav[27] utilizationSecMission 31524.564572079
scalar OsgEarthNet.uav[27] utilizationSecMaintenance 17510.22390635
scalar OsgEarthNet.uav[27] utilizationSecCharge 184844.2465359
scalar OsgEarthNet.uav[27] utilizationSecIdle 25320.963985674
scalar OsgEarthNet.uav[27] utilizationEnergyMission 151136.15050888
scalar OsgEarthNet.uav[27] utilizationEnergyMaintenance 83438.356517792
scalar OsgEarthNet.uav[27] utilizationEnergyCharge 233810.44848633
scalar OsgEarthNet.uav[27] utilizationEnergyOverdrawMission 0
scalar OsgEarthNet.uav[27] utilizationEnergyOverdrawMaintenance 0
scalar OsgEarthNet.uav[27] utilizationCountMissions 56
scalar OsgEarthNet.uav[27] utilizationCountManeuversMission 975
scalar OsgEarthNet.uav[27] utilizationCountManeuversMaintenance 112
scalar OsgEarthNet.uav[27] utilizationCountChargeState 56
scalar OsgEarthNet.uav[27] utilizationCountOverdrawnAfterMission 0
scalar OsgEarthNet.uav[27] utilizationCountIdleState 55
scalar OsgEarthNet.uav[27] utilizationFail 0
scalar OsgEarthNet.uav[27] simulationTime 259200
scalar OsgEarthNet.uav[28] utilizationSecMission 39005.01917088
scalar OsgEarthNet.uav[28] utilizationSecMaintenance 17671.676754796
scalar OsgEarthNet.uav[28] utilizationSecCharge 198401.29807432
scalar OsgEarthNet.uav[28] utilizationSecIdle 4122.005
scalar OsgEarthNet.uav[28] utilizationEnergyMission 192508.30161667
scalar OsgEarthNet.uav[28] utilizationEnergyMaintenance 81336.020217896
scalar OsgEarthNet.uav[28] utilizationEnergyCharge 270575.06811523
scalar OsgEarthNet.uav[28] utilizationEnergyOverdrawMission 0
scalar OsgEarthNet.uav[28] utilizationEnergyOverdrawMaintenance 0
scalar OsgEarthNet.uav[28] utilizationCountMissions 60
scalar OsgEarthNet.uav[28] utilizationCountManeuversMission 1447
scalar OsgEarthNet.uav[28] utilizationCountManeuversMaintenance 120
scalar OsgEarthNet.uav[28] utilizationCountChargeState 60
scalar OsgEarthNet.uav[28] utilizationCountOverdrawnAfterMission 0
scalar OsgEarthNet.uav[28] utilizationCountIdleState 15
scalar OsgEarthNet.uav[28] utilizationFail 0
scalar OsgEarthNet.uav[28] simulationTime 259200
scalar OsgEarthNet.uav[29] utilizationSecMission 23199.635327455
scalar OsgEarthNet.uav[29] utilizationSecMaintenance 14574.396828762
scalar OsgEarthNet.uav[29] utilizationSecCharge 141000
scalar OsgEarthNet.uav[29] utilizationSecIdle 80425.966843784
scalar OsgEarthNet.uav[29] utilizationEnergyMission 113089.01607895
scalar OsgEarthNet.uav[29] utilizationEnergyMaintenance 69115.50491333
scalar OsgEarthNet.uav[29] utilizationEnergyCharge 181871.546875
scalar OsgEarthNet.uav[29] utilizationEnergyOverdrawMission 0
scalar OsgEarthNet.uav[29] utilizationEnergyOverdrawMaintenance 0
scalar OsgEarthNet.uav[29] utilizationCountMissions 40
scalar OsgEarthNet.uav[29] utilizationCountManeuversMission 765
scalar OsgEarthNet.uav[29] utilizationCountManeuversMaintenance 80
scalar OsgEarthNet.uav[29] utilizationCountChargeState 40
scalar OsgEarthNet.uav[29] utilizationCountOverdrawnAfterMission 0
scalar OsgEarthNet.uav[29] utilizationCountIdleState 41
scalar OsgEarthNet.uav[29] utilizationFail 0
scalar OsgEarthNet.uav[29] simulationTime 259200
scalar OsgEarthNet.uav[30] utilizationSecMission 20579.010174875
scalar OsgEarthNet.uav[30] utilizationSecMaintenance 12591.503773434
scalar OsgEarthNet.uav[30] utilizationSecCharge 123420
scalar OsgEarthNet.uav[30] utilizationSecIdle 102609.48505169
scalar OsgEarthNet.uav[30] utilizationEnergyMission 99992.872661591
scalar OsgEarthNet.uav[30] utilizationEnergyMaintenance 59540.799991608
scalar OsgEarthNet.uav[30] utilizationEnergyCharge 159178.57568359
scalar OsgEarthNet.uav[30] utilizationEnergyOverdrawMission 0
scalar OsgEarthNet.uav[30] utilizationEnergyOverdrawMaintenance 0
scalar OsgEarthNet.uav[30] utilizationCountMissions 35
scalar OsgEarthNet.uav[30] utilizationCountManeuversMission 660
scalar OsgEarthNet.uav[30] utilizationCountManeuversMaintenance 70
scalar OsgEarthNet.uav[30] utilizationCountChargeState 35
scalar OsgEarthNet.uav[30] utilizationCountOverdrawnAfterMission 0
scalar OsgEarthNet.uav[30] utilizationCountIdleState 36
scalar OsgEarthNet.uav[30] utilizationFail 0
scalar OsgEarthNet.uav[30] simulationTime 259200
scalar OsgEarthNet.uav[31] utilizationSecMission 30763.51944352
scalar OsgEarthNet.uav[31] utilizationSecMaintenance 17886.5234657
scalar OsgEarthNet.uav[31] utilizationSecCharge 184700.15586958
scalar OsgEarthNet.uav[31] utilizationSecIdle 25849.800221201
scalar OsgEarthNet.uav[31] utilizationEnergyMission 147086.88999557
scalar OsgEarthNet.uav[31] utilizationEnergyMaintenance 85378.534061432
scalar OsgEarthNet.uav[31] utilizationEnergyCharge 230099.37524414
scalar OsgEarthNet.uav[31] utilizationEnergyOverdrawMission 0
scalar OsgEarthNet.uav[31] utilizationEnergyOverdrawMaintenance 0
scalar OsgEarthNet.uav[31] utilizationCountMissions 58
scalar OsgEarthNet.uav[31] utilizationCountManeuversMission 868
scalar OsgEarthNet.uav[31] utilizationCountManeuversMaintenance 116
scalar OsgEarthNet.uav[31] utilizationCountChargeState 58
scalar OsgEarthNet.uav[31] utilizationCountOverdrawnAfterMission 0
scalar OsgEarthNet.uav[31] utilizationCountIdleState 57
scalar OsgEarthNet.uav[31] utilizationFail 0
scalar OsgEarthNet.uav[31] simulationTime 259200
scalar OsgEarthNet.uav[32] utilizationSecMission 40362.989184981
scalar OsgEarthNet.uav[32] utilizationSecMaintenance 16923.281757844
scalar OsgEarthNet.uav[32] utilizationSecCharge 197951.72705717
scalar OsgEarthNet.uav[32] utilizationSecIdle 3962.001
scalar OsgEarthNet.uav[32] utilizationEnergyMission 197383.63737869
scalar OsgEarthNet.uav[32] utilizationEnergyMaintenance 77785.816177368
scalar OsgEarthNet.uav[32] utilizationEnergyCharge 269873.62353516
scalar OsgEarthNet.uav[32] utilizationEnergyOverdrawMission 0
scalar OsgEarthNet.uav[32] utilizationEnergyOverdrawMaintenance 0
scalar OsgEarthNet.uav[32] utilizationCountMissions 60
scalar OsgEarthNet.uav[32] utilizationCountManeuversMission 1250
scalar OsgEarthNet.uav[32] utilizationCountManeuversMaintenance 120
scalar OsgEarthNet.uav[32] utilizationCountChargeState 60
scalar OsgEarthNet.uav[32] utilizationCountOverdrawnAfterMission 0
scalar OsgEarthNet.uav[32] utilizationCountIdleState 26
scalar OsgEarthNet.uav[32] utilizationFail 0
scalar OsgEarthNet.uav[32] simulationTime 259200
scalar OsgEarthNet.uav[33] utilizationSecMission 21597.868944793
scalar OsgEarthNet.uav[33] utilizationSecMaintenance 14254.228470212
scalar OsgEarthNet.uav[33] utilizationSecCharge 132227.33216712
scalar OsgEarthNet.uav[33] utilizationSecIdle 91120.569417878
scalar OsgEarthNet.uav[33] utilizationEnergyMission 105550.24852753
scalar OsgEarthNet.uav[33] utilizationEnergyMaintenance 67672.68976593
scalar OsgEarthNet.uav[33] utilizationEnergyCharge 171365.70239258
scalar OsgEarthNet.uav[33] utilizationEnergyOverdrawMission 0
scalar OsgEarthNet.uav[33] utilizationEnergyOverdrawMaintenance 0
scalar OsgEarthNet.uav[33] utilizationCountMissions 38
scalar OsgEarthNet.uav[33] utilizationCountManeuversMission 746
scalar OsgEarthNet.uav[33] utilizationCountManeuversMaintenance 76
scalar OsgEarthNet.uav[33] utilizationCountChargeState 38
scalar OsgEarthNet.uav[33] utilizationCountOverdrawnAfterMission 0
scalar OsgEarthNet.uav[33] utilizationCountIdleState 38
scalar OsgEarthNet.uav[33] utilizationFail 0
scalar OsgEarthNet.uav[33] simulationTime 259200
scalar OsgEarthNet.uav[34] utilizationSecMission 30284.01821383
scalar OsgEarthNet.uav[34] utilizationSecMaintenance 18262.08056983
scalar OsgEarthNet.uav[34] utilizationSecCharge 186671.89921634
scalar OsgEarthNet.uav[34] utilizationSecIdle 23982.001
scalar OsgEarthNet.uav[34] utilizationEnergyMission 148126.98021698
scalar OsgEarthNet.uav[34] utilizationEnergyMaintenance 87022.015453339
scalar OsgEarthNet.uav[34] utilizationEnergyCharge 233722.06079102
scalar OsgEarthNet.uav[34] utilizationEnergyOverdrawMission 0
scalar OsgEarthNet.uav[34] utilizationEnergyOverdrawMaintenance 0
scalar OsgEarthNet.uav[34] utilizationCountMissions 57
scalar OsgEarthNet.uav[34] utilizationCountManeuversMission 926
scalar OsgEarthNet.uav[34] utilizationCountManeuversMaintenance 114
scalar OsgEarthNet.uav[34] utilizationCountChargeState 57
scalar OsgEarthNet.uav[34] utilizationCountOverdrawnAfterMission 0
scalar OsgEarthNet.uav[34] utilizationCountIdleState 56
scalar OsgEarthNet.uav[34] utilizationFail 0
scalar OsgEarthNet.uav[34] simulationTime 259200
scalar OsgEarthNet.uav[35] utilizationSecMission 39980.83249519
scalar OsgEarthNet.uav[35] utilizationSecMaintenance 16455.037738142
scalar OsgEarthNet.uav[35] utilizationSecCharge 196990.60343764
scalar OsgEarthNet.uav[35] utilizationSecIdle 5773.5253290289
scalar OsgEarthNet.uav[35] utilizationEnergyMission 193930.97240829
scalar OsgEarthNet.uav[35] utilizationEnergyMaintenance 74928.937198639
scalar OsgEarthNet.uav[35] utilizationEnergyCharge 269853.66162109
scalar OsgEarthNet.uav[35] utilizationEnergyOverdrawMission 0
scalar OsgEarthNet.uav[35] utilizationEnergyOverdrawMaintenance 0
scalar OsgEarthNet.uav[35] utilizationCountMissions 59
scalar OsgEarthNet.uav[35] utilizationCountManeuversMission 1336
scalar OsgEarthNet.uav[35] utilizationCountManeuversMaintenance 118
scalar OsgEarthNet.uav[35] utilizationCountChargeState 59
scalar OsgEarthNet.uav[35] utilizationCountOverdrawnAfterMission 0
scalar OsgEarthNet.uav[35] utilizationCountIdleState 19
scalar OsgEarthNet.uav[35] utilizationFail 0
scalar OsgEarthNet.uav[35] simulationTime 259200
scalar OsgEarthNet.uav[36] utilizationSecMission 23630.627593865
scalar OsgEarthNet.uav[36] utilizationSecMaintenance 14186.365117062
scalar OsgEarthNet.uav[36] utilizationSecCharge 140940.99028907
scalar OsgEarthNet.uav[36] utilizationSecIdle 80442.016
scalar OsgEarthNet.uav[36] utilizationEnergyMission 114695.88827133
scalar OsgEarthNet.uav[36] utilizationEnergyMaintenance 67507.686523437
scalar OsgEarthNet.uav[36] utilizationEnergyCharge 182734.08837891
scalar OsgEarthNet.uav[36] utilizationEnergyOverdrawMission 0
scalar OsgEarthNet.uav[36] utilizationEnergyOverdrawMaintenance 0
scalar OsgEarthNet.uav[36] utilizationCountMissions 40
scalar OsgEarthNet.uav[36] utilizationCountManeuversMission 739
scalar OsgEarthNet.uav[36] utilizationCountManeuversMaintenance 80
scalar OsgEarthNet.uav[36] utilizationCountChargeState 40
scalar OsgEarthNet.uav[36] utilizationCountOverdrawnAfterMission 0
scalar OsgEarthNet.uav[36] utilizationCountIdleState 40
scalar OsgEarthNet.uav[36] utilizationFail 0
scalar OsgEarthNet.uav[36] simulationTime 259200
scalar OsgEarthNet.uav[37] utilizationSecMission 29675.259945367
scalar OsgEarthNet.uav[37] utilizationSecMaintenance 19164.010511053
scalar OsgEarthNet.uav[37] utilizationSecCharge 186368.72654358
scalar OsgEarthNet.uav[37] utilizationSecIdle 23992.002
scalar OsgEarthNet.uav[37] utilizationEnergyMission 144872.09712982
scalar OsgEarthNet.uav[37] utilizationEnergyMaintenance 90683.322330475
scalar OsgEarthNet.uav[37] utilizationEnergyCharge 231248.96142578
scalar OsgEarthNet.uav[37] utilizationEnergyOverdrawMission 0
scalar OsgEarthNet.uav[37] utilizationEnergyOverdrawMaintenance 0
scalar OsgEarthNet.uav[37] utilizationCountMissions 59
scalar OsgEarthNet.uav[37] utilizationCountManeuversMission 928
scalar OsgEarthNet.uav[37] utilizationCountManeuversMaintenance 118
scalar OsgEarthNet.uav[37] utilizationCountChargeState 59
scalar OsgEarthNet.uav[37] utilizationCountOverdrawnAfterMission 0
scalar OsgEarthNet.uav[37] utilizationCountIdleState 58
scalar OsgEarthNet.uav[37] utilizationFail 0
scalar OsgEarthNet.uav[37] simulationTime 259200
scalar OsgEarthNet.uav[38] utilizationSecMission 40084.933367204
scalar OsgEarthNet.uav[38] utilizationSecMaintenance 16602.23786441
scalar OsgEarthNet.uav[38] utilizationSecCharge 197190.82576839
scalar OsgEarthNet.uav[38] utilizationSecIdle 5322.002
scalar OsgEarthNet.uav[38] utilizationEnergyMission 194886.41472626
scalar OsgEarthNet.uav[38] utilizationEnergyMaintenance 76781.078968048
scalar OsgEarthNet.uav[38] utilizationEnergyCharge 268668.33959961
scalar OsgEarthNet.uav[38] utilizationEnergyOverdrawMission 0
scalar OsgEarthNet.uav[38] utilizationEnergyOverdrawMaintenance 0
scalar OsgEarthNet.uav[38] utilizationCountMissions 59
scalar OsgEarthNet.uav[38] utilizationCountManeuversMission 1265
scalar OsgEarthNet.uav[38] utilizationCountManeuversMaintenance 118
scalar OsgEarthNet.uav[38] utilizationCountChargeState 59
scalar OsgEarthNet.uav[38] utilizationCountOverdrawnAfterMission 0
scalar OsgEarthNet.uav[38] utilizationCountIdleState 22
scalar OsgEarthNet.uav[38] utilizationFail 0
scalar OsgEarthNet.uav[38] simulationTime 259200
scalar OsgEarthNet.uav[39] utilizationSecMission 21758.494097373
scalar OsgEarthNet.uav[39] utilizationSecMaintenance 13999.982953499
scalar OsgEarthNet.uav[39] utilizationSecCharge 133850
scalar OsgEarthNet.uav[39] utilizationSecIdle 89591.521949128
scalar OsgEarthNet.uav[39] utilizationEnergyMission 106410.26190948
scalar OsgEarthNet.uav[39] utilizationEnergyMaintenance 66999.320289612
scalar OsgEarthNet.uav[39] utilizationEnergyCharge 172631.76855469
scalar OsgEarthNet.uav[39] utilizationEnergyOverdrawMission 0
scalar OsgEarthNet.uav[39] utilizationEnergyOverdrawMaintenance 0
scalar OsgEarthNet.uav[39] utilizationCountMissions 38
scalar OsgEarthNet.uav[39] utilizationCountManeuversMission 728
scalar OsgEarthNet.uav[39] utilizationCountManeuversMaintenance 76
scalar OsgEarthNet.uav[39] utilizationCountChargeState 38
scalar OsgEarthNet.uav[39] utilizationCountOverdrawnAfterMission 0
scalar OsgEarthNet.uav[39] utilizationCountIdleState 39
scalar OsgEarthNet.uav[39] utilizationFail 0
scalar OsgEarthNet.uav[39] simulationTime 259200
scalar OsgEarthNet.uav[40] utilizationSecMission 38115.884696198
scalar OsgEarthNet.uav[40] utilizationSecMaintenance 17717.470399795
scalar OsgEarthNet.uav[40] utilizationSecCharge 195892.74550972
scalar OsgEarthNet.uav[40] utilizationSecIdle 7473.8983942837
scalar OsgEarthNet.uav[40] utilizationEnergyMission 186677.36658096
scalar OsgEarthNet.uav[40] utilizationEnergyMaintenance 82140.002502441
scalar OsgEarthNet.uav[40] utilizationEnergyCharge 268251.46484375
scalar OsgEarthNet.uav[40] utilizationEnergyOverdrawMission 0
scalar OsgEarthNet.uav[40] utilizationEnergyOverdrawMaintenance 0
scalar OsgEarthNet.uav[40] utilizationCountMissions 59
scalar OsgEarthNet.uav[40] utilizationCountManeuversMission 1349
scalar OsgEarthNet.uav[40] utilizationCountManeuversMaintenance 118
scalar OsgEarthNet.uav[40] utilizationCountChargeState 59
scalar OsgEarthNet.uav[40] utilizationCountOverdrawnAfterMission 0
scalar OsgEarthNet.uav[40] utilizationCountIdleState 24
scalar OsgEarthNet.uav[40] utilizationFail 0
scalar OsgEarthNet.uav[40] simulationTime 259200
scalar OsgEarthNet.uav[41] utilizationSecMission 31019.394205043
scalar OsgEarthNet.uav[41] utilizationSecMaintenance 16718.599794957
scalar OsgEarthNet.uav[41] utilizationSecCharge 182290
scalar OsgEarthNet.uav[41] utilizationSecIdle 29172.005
scalar OsgEarthNet.uav[41] utilizationEnergyMission 147839.50774868
scalar OsgEarthNet.uav[41] utilizationEnergyMaintenance 79830.408641815
scalar OsgEarthNet.uav[41] utilizationEnergyCharge 225711.37255859
scalar OsgEarthNet.uav[41] utilizationEnergyOverdrawMission 0
scalar OsgEarthNet.uav[41] utilizationEnergyOverdrawMaintenance 0
scalar OsgEarthNet.uav[41] utilizationCountMissions 57
scalar OsgEarthNet.uav[41] utilizationCountManeuversMission 790
scalar OsgEarthNet.uav[41] utilizationCountManeuversMaintenance 115
scalar OsgEarthNet.uav[41] utilizationCountChargeState 57
scalar OsgEarthNet.uav[41] utilizationCountOverdrawnAfterMission 0
scalar OsgEarthNet.uav[41] utilizationCountIdleState 57
scalar OsgEarthNet.uav[41] utilizationFail 0
scalar OsgEarthNet.uav[41] simulationTime 259200
scalar OsgEarthNet.uav[42] utilizationSecMission 39751.576648084
scalar OsgEarthNet.uav[42] utilizationSecMaintenance 16926.066021363
scalar OsgEarthNet.uav[42] utilizationSecCharge 197370.68327897
scalar OsgEarthNet.uav[42] utilizationSecIdle 5151.6730515863
scalar OsgEarthNet.uav[42] utilizationEnergyMission 192119.51937103
scalar OsgEarthNet.uav[42] utilizationEnergyMaintenance 78411.622848511
scalar OsgEarthNet.uav[42] utilizationEnergyCharge 268764.9765625
scalar OsgEarthNet.uav[42] utilizationEnergyOverdrawMission 0
scalar OsgEarthNet.uav[42] utilizationEnergyOverdrawMaintenance 0
scalar OsgEarthNet.uav[42] utilizationCountMissions 59
scalar OsgEarthNet.uav[42] utilizationCountManeuversMission 1309
scalar OsgEarthNet.uav[42] utilizationCountManeuversMaintenance 118
scalar OsgEarthNet.uav[42] utilizationCountChargeState 59
scalar OsgEarthNet.uav[42] utilizationCountOverdrawnAfterMission 0
scalar OsgEarthNet.uav[42] utilizationCountIdleState 21
scalar OsgEarthNet.uav[42] utilizationFail 0
scalar OsgEarthNet.uav[42] simulationTime 259200
scalar OsgEarthNet.uav[43] utilizationSecMission 25251.252746445
scalar OsgEarthNet.uav[43] utilizationSecMaintenance 15371.813423409
scalar OsgEarthNet.uav[43] utilizationSecCharge 149594.16686481
scalar OsgEarthNet.uav[43] utilizationSecIdle 68982.765965339
scalar OsgEarthNet.uav[43] utilizationEnergyMission 121713.77652359
scalar OsgEarthNet.uav[43] utilizationEnergyMaintenance 73516.642410278
scalar OsgEarthNet.uav[43] utilizationEnergyCharge 193599.92016602
scalar OsgEarthNet.uav[43] utilizationEnergyOverdrawMission 0
scalar OsgEarthNet.uav[43] utilizationEnergyOverdrawMaintenance 0
scalar OsgEarthNet.uav[43] utilizationCountMissions 43
scalar OsgEarthNet.uav[43] utilizationCountManeuversMission 794
scalar OsgEarthNet.uav[43] utilizationCountManeuversMaintenance 86
scalar OsgEarthNet.uav[43] utilizationCountChargeState 43
scalar OsgEarthNet.uav[43] utilizationCountOverdrawnAfterMission 0
scalar OsgEarthNet.uav[43] utilizationCountIdleState 43
scalar OsgEarthNet.uav[43] utilizationFail 0
scalar OsgEarthNet.uav[43] simulationTime 259200
scalar OsgEarthNet.uav[44] utilizationSecMission 30086.329240284
scalar OsgEarthNet.uav[44] utilizationSecMaintenance 17680.861822402
scalar OsgEarthNet.uav[44] utilizationSecCharge 181751.75014212
scalar OsgEarthNet.uav[44] utilizationSecIdle 29681.057795193
scalar OsgEarthNet.uav[44] utilizationEnergyMission 144500.75534439
scalar OsgEarthNet.uav[44] utilizationEnergyMaintenance 83684.557579041
scalar OsgEarthNet.uav[44] utilizationEnergyCharge 226746.31054688
scalar OsgEarthNet.uav[44] utilizationEnergyOverdrawMission 0
scalar OsgEarthNet.uav[44] utilizationEnergyOverdrawMaintenance 0
scalar OsgEarthNet.uav[44] utilizationCountMissions 57
scalar OsgEarthNet.uav[44] utilizationCountManeuversMission 887
scalar OsgEarthNet.uav[44] utilizationCountManeuversMaintenance 114
scalar OsgEarthNet.uav[44] utilizationCountChargeState 57
scalar OsgEarthNet.uav[44] utilizationCountOverdrawnAfterMission 0
scalar OsgEarthNet.uav[44] utilizationCountIdleState 57
scalar OsgEarthNet.uav[44] utilizationFail 0
scalar OsgEarthNet.uav[44] simulationTime 259200
scalar OsgEarthNet.uav[45] utilizationSecMission 41033.070909358
scalar OsgEarthNet.uav[45] utilizationSecMaintenance 15079.983235637
scalar OsgEarthNet.uav[45] utilizationSecCharge 198504.943855
scalar OsgEarthNet.uav[45] utilizationSecIdle 4582.001
scalar OsgEarthNet.uav[45] utilizationEnergyMission 196829.10761642
scalar OsgEarthNet.uav[45] utilizationEnergyMaintenance 71025.391014099
scalar OsgEarthNet.uav[45] utilizationEnergyCharge 269655.03466797
scalar OsgEarthNet.uav[45] utilizationEnergyOverdrawMission 0
scalar OsgEarthNet.uav[45] utilizationEnergyOverdrawMaintenance 0
scalar OsgEarthNet.uav[45] utilizationCountMissions 58
scalar OsgEarthNet.uav[45] utilizationCountManeuversMission 1280
scalar OsgEarthNet.uav[45] utilizationCountManeuversMaintenance 116
scalar OsgEarthNet.uav[45] utilizationCountChargeState 58
scalar OsgEarthNet.uav[45] utilizationCountOverdrawnAfterMission 0
scalar OsgEarthNet.uav[45] utilizationCountIdleState 22
scalar OsgEarthNet.uav[45] utilizationFail 0
scalar OsgEarthNet.uav[45] simulationTime 259200
scalar OsgEarthNet.uav[46] utilizationSecMission 20586.876678383
scalar OsgEarthNet.uav[46] utilizationSecMaintenance 14282.195777031
scalar OsgEarthNet.uav[46] utilizationSecCharge 127667.22635065
scalar OsgEarthNet.uav[46] utilizationSecIdle 96663.700193936
scalar OsgEarthNet.uav[46] utilizationEnergyMission 100959.0525322
scalar OsgEarthNet.uav[46] utilizationEnergyMaintenance 67404.264095306
scalar OsgEarthNet.uav[46] utilizationEnergyCharge 165034.84765625
scalar OsgEarthNet.uav[46] utilizationEnergyOverdrawMission 0
scalar OsgEarthNet.uav[46] utilizationEnergyOverdrawMaintenance 0
scalar OsgEarthNet.uav[46] utilizationCountMissions 37
scalar OsgEarthNet.uav[46] utilizationCountManeuversMission 743
scalar OsgEarthNet.uav[46] utilizationCountManeuversMaintenance 74
scalar OsgEarthNet.uav[46] utilizationCountChargeState 37
scalar OsgEarthNet.uav[46] utilizationCountOverdrawnAfterMission 0
scalar OsgEarthNet.uav[46] utilizationCountIdleState 37
scalar OsgEarthNet.uav[46] utilizationFail 0
scalar OsgEarthNet.uav[46] simulationTime 259200
scalar OsgEarthNet.uav[47] utilizationSecMission 31622.69477013
scalar OsgEarthNet.uav[47] utilizationSecMaintenance 16827.880439111
scalar OsgEarthNet.uav[47] utilizationSecCharge 183614.81190124
scalar OsgEarthNet.uav[47] utilizationSecIdle 27134.611889516
scalar OsgEarthNet.uav[47] utilizationEnergyMission 151889.4089241
scalar OsgEarthNet.uav[47] utilizationEnergyMaintenance 80652.762809753
scalar OsgEarthNet.uav[47] utilizationEnergyCharge 229998.87475586
scalar OsgEarthNet.uav[47] utilizationEnergyOverdrawMission 0
scalar OsgEarthNet.uav[47] utilizationEnergyOverdrawMaintenance 0
scalar OsgEarthNet.uav[47] utilizationCountMissions 57
scalar OsgEarthNet.uav[47] utilizationCountManeuversMission 872
scalar OsgEarthNet.uav[47] utilizationCountManeuversMaintenance 114
scalar OsgEarthNet.uav[47] utilizationCountChargeState 57
scalar OsgEarthNet.uav[47] utilizationCountOverdrawnAfterMission 0
scalar OsgEarthNet.uav[47] utilizationCountIdleState 56
scalar OsgEarthNet.uav[47] utilizationFail 0
scalar OsgEarthNet.uav[47] simulationTime 259200
scalar OsgEarthNet.uav[48] utilizationSecMission 39630.87426968
scalar OsgEarthNet.uav[48] utilizationSecMaintenance 16690.679768275
scalar OsgEarthNet.uav[48] utilizationSecCharge 196778.60814801
scalar OsgEarthNet.uav[48] utilizationSecIdle 6099.83681404
scalar OsgEarthNet.uav[48] utilizationEnergyMission 193179.26372147
scalar OsgEarthNet.uav[48] utilizationEnergyMaintenance 76604.937717438
scalar OsgEarthNet.uav[48] utilizationEnergyCharge 268409.80810547
scalar OsgEarthNet.uav[48] utilizationEnergyOverdrawMission 0
scalar OsgEarthNet.uav[48] utilizationEnergyOverdrawMaintenance 0
scalar OsgEarthNet.uav[48] utilizationCountMissions 59
scalar OsgEarthNet.uav[48] utilizationCountManeuversMission 1294
scalar OsgEarthNet.uav[48] utilizationCountManeuversMaintenance 118
scalar OsgEarthNet.uav[48] utilizationCountChargeState 59
scalar OsgEarthNet.uav[48] utilizationCountOverdrawnAfterMission 0
scalar OsgEarthNet.uav[48] utilizationCountIdleState 19
scalar OsgEarthNet.uav[48] utilizationFail 0
scalar OsgEarthNet.uav[48] simulationTime 259200
scalar OsgEarthNet.uav[49] utilizationSecMission 29898.568789458
scalar OsgEarthNet.uav[49] utilizationSecMaintenance 18370.165190242
scalar OsgEarthNet.uav[49] utilizationSecCharge 184899.75135935
scalar OsgEarthNet.uav[49] utilizationSecIdle 26031.51366095
scalar OsgEarthNet.uav[49] utilizationEnergyMission 146861.60322571
scalar OsgEarthNet.uav[49] utilizationEnergyMaintenance 86688.139183044
scalar OsgEarthNet.uav[49] utilizationEnergyCharge 232237.98901367
scalar OsgEarthNet.uav[49] utilizationEnergyOverdrawMission 0
scalar OsgEarthNet.uav[49] utilizationEnergyOverdrawMaintenance 0
scalar OsgEarthNet.uav[49] utilizationCountMissions 57
scalar OsgEarthNet.uav[49] utilizationCountManeuversMission 897
scalar OsgEarthNet.uav[49] utilizationCountManeuversMaintenance 114
scalar OsgEarthNet.uav[49] utilizationCountChargeState 57
scalar OsgEarthNet.uav[49] utilizationCountOverdrawnAfterMission 0
scalar OsgEarthNet.uav[49] utilizationCountIdleState 57
scalar OsgEarthNet.uav[49] utilizationFail 0
scalar OsgEarthNet.uav[49] simulationTime 259200
scalar OsgEarthNet.uav[50] utilizationSecMission 21577.243792213
scalar OsgEarthNet.uav[50] utilizationSecMaintenance 14955.885651567
scalar OsgEarthNet.uav[50] utilizationSecCharge 136920
scalar OsgEarthNet.uav[50] utilizationSecIdle 85746.86955622
scalar OsgEarthNet.uav[50] utilizationEnergyMission 104812.79875946
scalar OsgEarthNet.uav[50] utilizationEnergyMaintenance 70920.803791046
scalar OsgEarthNet.uav[50] utilizationEnergyCharge 176584.58251953
scalar OsgEarthNet.uav[50] utilizationEnergyOverdrawMission 0
scalar OsgEarthNet.uav[50] utilizationEnergyOverdrawMaintenance 0
scalar OsgEarthNet.uav[50] utilizationCountMissions 39
scalar OsgEarthNet.uav[50] utilizationCountManeuversMission 771
scalar OsgEarthNet.uav[50] utilizationCountManeuversMaintenance 78
scalar OsgEarthNet.uav[50] utilizationCountChargeState 39
scalar OsgEarthNet.uav[50] utilizationCountOverdrawnAfterMission 0
scalar OsgEarthNet.uav[50] utilizationCountIdleState 40
scalar OsgEarthNet.uav[50] utilizationFail 0
scalar OsgEarthNet.uav[50] simulationTime 259200
scalar OsgEarthNet.uav[51] utilizationSecMission 31144.75066157
scalar OsgEarthNet.uav[51] utilizationSecMaintenance 18507.362564943
scalar OsgEarthNet.uav[51] utilizationSecCharge 188290
scalar OsgEarthNet.uav[51] utilizationSecIdle 21257.885773486
scalar OsgEarthNet.uav[51] utilizationEnergyMission 151722.73509598
scalar OsgEarthNet.uav[51] utilizationEnergyMaintenance 87949.480957031
scalar OsgEarthNet.uav[51] utilizationEnergyCharge 238491.61791992
scalar OsgEarthNet.uav[51] utilizationEnergyOverdrawMission 0
scalar OsgEarthNet.uav[51] utilizationEnergyOverdrawMaintenance 0
scalar OsgEarthNet.uav[51] utilizationCountMissions 56
scalar OsgEarthNet.uav[51] utilizationCountManeuversMission 1028
scalar OsgEarthNet.uav[51] utilizationCountManeuversMaintenance 112
scalar OsgEarthNet.uav[51] utilizationCountChargeState 56
scalar OsgEarthNet.uav[51] utilizationCountOverdrawnAfterMission 0
scalar OsgEarthNet.uav[51] utilizationCountIdleState 55
scalar OsgEarthNet.uav[51] utilizationFail 0
scalar OsgEarthNet.uav[51] simulationTime 259200
scalar OsgEarthNet.uav[52] utilizationSecMission 39958.495552836
scalar OsgEarthNet.uav[52] utilizationSecMaintenance 16502.908469626
scalar OsgEarthNet.uav[52] utilizationSecCharge 197436.59297754
scalar OsgEarthNet.uav[52] utilizationSecIdle 5302.002
scalar OsgEarthNet.uav[52] utilizationEnergyMission 196060.68359375
scalar OsgEarthNet.uav[52] utilizationEnergyMaintenance 76698.992267609
scalar OsgEarthNet.uav[52] utilizationEnergyCharge 268577.58007812
scalar OsgEarthNet.uav[52] utilizationEnergyOverdrawMission 0
scalar OsgEarthNet.uav[52] utilizationEnergyOverdrawMaintenance 0
scalar OsgEarthNet.uav[52] utilizationCountMissions 59
scalar OsgEarthNet.uav[52] utilizationCountManeuversMission 1353
scalar OsgEarthNet.uav[52] utilizationCountManeuversMaintenance 118
scalar OsgEarthNet.uav[52] utilizationCountChargeState 59
scalar OsgEarthNet.uav[52] utilizationCountOverdrawnAfterMission 0
scalar OsgEarthNet.uav[52] utilizationCountIdleState 22
scalar OsgEarthNet.uav[52] utilizationFail 0
scalar OsgEarthNet.uav[52] simulationTime 259200
scalar OsgEarthNet.uav[53] utilizationSecMission 26009.268213625
scalar OsgEarthNet.uav[53] utilizationSecMaintenance 17665.470467758
scalar OsgEarthNet.uav[53] utilizationSecCharge 161653.25931862
scalar OsgEarthNet.uav[53] utilizationSecIdle 53872.001
scalar OsgEarthNet.uav[53] utilizationEnergyMission 127981.77476883
scalar OsgEarthNet.uav[53] utilizationEnergyMaintenance 84123.203205108
scalar OsgEarthNet.uav[53] utilizationEnergyCharge 208066.078125
scalar OsgEarthNet.uav[53] utilizationEnergyOverdrawMission 0
scalar OsgEarthNet.uav[53] utilizationEnergyOverdrawMaintenance 0
scalar OsgEarthNet.uav[53] utilizationCountMissions 47
scalar OsgEarthNet.uav[53] utilizationCountManeuversMission 927
scalar OsgEarthNet.uav[53] utilizationCountManeuversMaintenance 94
scalar OsgEarthNet.uav[53] utilizationCountChargeState 47
scalar OsgEarthNet.uav[53] utilizationCountOverdrawnAfterMission 0
scalar OsgEarthNet.uav[53] utilizationCountIdleState 47
scalar OsgEarthNet.uav[53] utilizationFail 0
scalar OsgEarthNet.uav[53] simulationTime 259200
scalar OsgEarthNet.uav[54] utilizationSecMission 30611.251031307
scalar OsgEarthNet.uav[54] utilizationSecMaintenance 17935.086117096
scalar OsgEarthNet.uav[54] utilizationSecCharge 184491.6558516
scalar OsgEarthNet.uav[54] utilizationSecIdle 26162.006
scalar OsgEarthNet.uav[54] utilizationEnergyMission 147365.09955215
scalar OsgEarthNet.uav[54] utilizationEnergyMaintenance 84368.396213531
scalar OsgEarthNet.uav[54] utilizationEnergyCharge 231359.15380859
scalar OsgEarthNet.uav[54] utilizationEnergyOverdrawMission 0
scalar OsgEarthNet.uav[54] utilizationEnergyOverdrawMaintenance 0
scalar OsgEarthNet.uav[54] utilizationCountMissions 57
scalar OsgEarthNet.uav[54] utilizationCountManeuversMission 910
scalar OsgEarthNet.uav[54] utilizationCountManeuversMaintenance 114
scalar OsgEarthNet.uav[54] utilizationCountChargeState 57
scalar OsgEarthNet.uav[54] utilizationCountOverdrawnAfterMission 0
scalar OsgEarthNet.uav[54] utilizationCountIdleState 57
scalar OsgEarthNet.uav[54] utilizationFail 0
scalar OsgEarthNet.uav[54] simulationTime 259200
scalar OsgEarthNet.uav[55] utilizationSecMission 40132.057820042
scalar OsgEarthNet.uav[55] utilizationSecMaintenance 16568.471790948
scalar OsgEarthNet.uav[55] utilizationSecCharge 196349.83830835
scalar OsgEarthNet.uav[55] utilizationSecIdle 6149.6310806652
scalar OsgEarthNet.uav[55] utilizationEnergyMission 195162.84280777
scalar OsgEarthNet.uav[55] utilizationEnergyMaintenance 76224.978534699
scalar OsgEarthNet.uav[55] utilizationEnergyCharge 269896.24267578
scalar OsgEarthNet.uav[55] utilizationEnergyOverdrawMission 0
scalar OsgEarthNet.uav[55] utilizationEnergyOverdrawMaintenance 0
scalar OsgEarthNet.uav[55] utilizationCountMissions 59
scalar OsgEarthNet.uav[55] utilizationCountManeuversMission 1325
scalar OsgEarthNet.uav[55] utilizationCountManeuversMaintenance 118
scalar OsgEarthNet.uav[55] utilizationCountChargeState 59
scalar OsgEarthNet.uav[55] utilizationCountOverdrawnAfterMission 0
scalar OsgEarthNet.uav[55] utilizationCountIdleState 23
scalar OsgEarthNet.uav[55] utilizationFail 0
scalar OsgEarthNet.uav[55] simulationTime 259200
scalar OsgEarthNet.uav[56] utilizationSecMission 25331.361821524
scalar OsgEarthNet.uav[56] utilizationSecMaintenance 15008.985941731
scalar OsgEarthNet.uav[56] utilizationSecCharge 150620
scalar OsgEarthNet.uav[56] utilizationSecIdle 68239.651236745
scalar OsgEarthNet.uav[56] utilizationEnergyMission 123175.90857697
scalar OsgEarthNet.uav[56] utilizationEnergyMaintenance 70823.723312378
scalar OsgEarthNet.uav[56] utilizationEnergyCharge 193973.01318359
scalar OsgEarthNet.uav[56] utilizationEnergyOverdrawMission 0
scalar OsgEarthNet.uav[56] utilizationEnergyOverdrawMaintenance 0
scalar OsgEarthNet.uav[56] utilizationCountMissions 43
scalar OsgEarthNet.uav[56] utilizationCountManeuversMission 781
scalar OsgEarthNet.uav[56] utilizationCountManeuversMaintenance 86
scalar OsgEarthNet.uav[56] utilizationCountChargeState 43
scalar OsgEarthNet.uav[56] utilizationCountOverdrawnAfterMission 0
scalar OsgEarthNet.uav[56] utilizationCountIdleState 44
scalar OsgEarthNet.uav[56] utilizationFail 0
scalar OsgEarthNet.uav[56] simulationTime 259200
scalar OsgEarthNet.uav[57] utilizationSecMission 32381.544802787
scalar OsgEarthNet.uav[57] utilizationSecMaintenance 16546.190795068
scalar OsgEarthNet.uav[57] utilizationSecCharge 184213.73674007
scalar OsgEarthNet.uav[57] utilizationSecIdle 26058.526662077
scalar OsgEarthNet.uav[57] utilizationEnergyMission 152976.44194412
scalar OsgEarthNet.uav[57] utilizationEnergyMaintenance 78199.124504089
scalar OsgEarthNet.uav[57] utilizationEnergyCharge 230496.62402344
scalar OsgEarthNet.uav[57] utilizationEnergyOverdrawMission 0
scalar OsgEarthNet.uav[57] utilizationEnergyOverdrawMaintenance 0
scalar OsgEarthNet.uav[57] utilizationCountMissions 57
scalar OsgEarthNet.uav[57] utilizationCountManeuversMission 808
scalar OsgEarthNet.uav[57] utilizationCountManeuversMaintenance 114
scalar OsgEarthNet.uav[57] utilizationCountChargeState 57
scalar OsgEarthNet.uav[57] utilizationCountOverdrawnAfterMission 0
scalar OsgEarthNet.uav[57] utilizationCountIdleState 56
scalar OsgEarthNet.uav[57] utilizationFail 0
scalar OsgEarthNet.uav[57] simulationTime 259200
scalar OsgEarthNet.uav[58] utilizationSecMission 39628.986200194
scalar OsgEarthNet.uav[58] utilizationSecMaintenance 17229.009799806
scalar OsgEarthNet.uav[58] utilizationSecCharge 197510
scalar OsgEarthNet.uav[58] utilizationSecIdle 4832.003
scalar OsgEarthNet.uav[58] utilizationEnergyMission 191178.40786041
scalar OsgEarthNet.uav[58] utilizationEnergyMaintenance 78949.480045319
scalar OsgEarthNet.uav[58] utilizationEnergyCharge 269338.59814453
scalar OsgEarthNet.uav[58] utilizationEnergyOverdrawMission 0
scalar OsgEarthNet.uav[58] utilizationEnergyOverdrawMaintenance 0
scalar OsgEarthNet.uav[58] utilizationCountMissions 59
scalar OsgEarthNet.uav[58] utilizationCountManeuversMission 1314
scalar OsgEarthNet.uav[58] utilizationCountManeuversMaintenance 119
scalar OsgEarthNet.uav[58] utilizationCountChargeState 59
scalar OsgEarthNet.uav[58] utilizationCountOverdrawnAfterMission 0
scalar OsgEarthNet.uav[58] utilizationCountIdleState 22
scalar OsgEarthNet.uav[58] utilizationFail 0
scalar OsgEarthNet.uav[58] simulationTime 259200
scalar OsgEarthNet.uav[59] utilizationSecMission 23477.243792213
scalar OsgEarthNet.uav[59] utilizationSecMaintenance 16688.245236997
scalar OsgEarthNet.uav[59] utilizationSecCharge 150462.50197079
scalar OsgEarthNet.uav[59] utilizationSecIdle 68572.008
scalar OsgEarthNet.uav[59] utilizationEnergyMission 115566.90043259
scalar OsgEarthNet.uav[59] utilizationEnergyMaintenance 79462.14679718
scalar OsgEarthNet.uav[59] utilizationEnergyCharge 195008.89404297
scalar OsgEarthNet.uav[59] utilizationEnergyOverdrawMission 0
scalar OsgEarthNet.uav[59] utilizationEnergyOverdrawMaintenance 0
scalar OsgEarthNet.uav[59] utilizationCountMissions 43
scalar OsgEarthNet.uav[59] utilizationCountManeuversMission 866
scalar OsgEarthNet.uav[59] utilizationCountManeuversMaintenance 86
scalar OsgEarthNet.uav[59] utilizationCountChargeState 43
scalar OsgEarthNet.uav[59] utilizationCountOverdrawnAfterMission 0
scalar OsgEarthNet.uav[59] utilizationCountIdleState 43
scalar OsgEarthNet.uav[59] utilizationFail 0
scalar OsgEarthNet.uav[59] simulationTime 259200
scalar OsgEarthNet.uav[60] utilizationSecMission 21979.668023933
scalar OsgEarthNet.uav[60] utilizationSecMaintenance 14958.320976067
scalar OsgEarthNet.uav[60] utilizationSecCharge 136730
scalar OsgEarthNet.uav[60] utilizationSecIdle 85532.01
scalar OsgEarthNet.uav[60] utilizationEnergyMission 107114.05087478
scalar OsgEarthNet.uav[60] utilizationEnergyMaintenance 71664.888629913
scalar OsgEarthNet.uav[60] utilizationEnergyCharge 176123.37744141
scalar OsgEarthNet.uav[60] utilizationEnergyOverdrawMission 0
scalar OsgEarthNet.uav[60] utilizationEnergyOverdrawMaintenance 0
scalar OsgEarthNet.uav[60] utilizationCountMissions 39
scalar OsgEarthNet.uav[60] utilizationCountManeuversMission 771
scalar OsgEarthNet.uav[60] utilizationCountManeuversMaintenance 79
scalar OsgEarthNet.uav[60] utilizationCountChargeState 39
scalar OsgEarthNet.uav[60] utilizationCountOverdrawnAfterMission 0
scalar OsgEarthNet.uav[60] utilizationCountIdleState 40
scalar OsgEarthNet.uav[60] utilizationFail 0
scalar OsgEarthNet.uav[60] simulationTime 259200
scalar OsgEarthNet.uav[61] utilizationSecMission 30488.439719266
scalar OsgEarthNet.uav[61] utilizationSecMaintenance 18850.564355527
scalar OsgEarthNet.uav[61] utilizationSecCharge 186475.19739756
scalar OsgEarthNet.uav[61] utilizationSecIdle 23385.79752765
scalar OsgEarthNet.uav[61] utilizationEnergyMission 149513.73599625
scalar OsgEarthNet.uav[61] utilizationEnergyMaintenance 89201.682640076
scalar OsgEarthNet.uav[61] utilizationEnergyCharge 234833.4597168
scalar OsgEarthNet.uav[61] utilizationEnergyOverdrawMission 0
scalar OsgEarthNet.uav[61] utilizationEnergyOverdrawMaintenance 0
scalar OsgEarthNet.uav[61] utilizationCountMissions 57
scalar OsgEarthNet.uav[61] utilizationCountManeuversMission 1006
scalar OsgEarthNet.uav[61] utilizationCountManeuversMaintenance 114
scalar OsgEarthNet.uav[61] utilizationCountChargeState 57
scalar OsgEarthNet.uav[61] utilizationCountOverdrawnAfterMission 0
scalar OsgEarthNet.uav[61] utilizationCountIdleState 57
scalar OsgEarthNet.uav[61] utilizationFail 0
scalar OsgEarthNet.uav[61] simulationTime 259200
scalar OsgEarthNet.uav[62] utilizationSecMission 38966.263072223
scalar OsgEarthNet.uav[62] utilizationSecMaintenance 17831.234722842
scalar OsgEarthNet.uav[62] utilizationSecCharge 198050.49820493
scalar OsgEarthNet.uav[62] utilizationSecIdle 4352.003
scalar OsgEarthNet.uav[62] utilizationEnergyMission 190916.10501862
scalar OsgEarthNet.uav[62] utilizationEnergyMaintenance 82833.234130859
scalar OsgEarthNet.uav[62] utilizationEnergyCharge 271490.74157715
scalar OsgEarthNet.uav[62] utilizationEnergyOverdrawMission 0
scalar OsgEarthNet.uav[62] utilizationEnergyOverdrawMaintenance 0
scalar OsgEarthNet.uav[62] utilizationCountMissions 60
scalar OsgEarthNet.uav[62] utilizationCountManeuversMission 1334
scalar OsgEarthNet.uav[62] utilizationCountManeuversMaintenance 120
scalar OsgEarthNet.uav[62] utilizationCountChargeState 60
scalar OsgEarthNet.uav[62] utilizationCountOverdrawnAfterMission 0
scalar OsgEarthNet.uav[62] utilizationCountIdleState 19
scalar OsgEarthNet.uav[62] utilizationFail 0
scalar OsgEarthNet.uav[62] simulationTime 259200
scalar OsgEarthNet.uav[63] utilizationSecMission 26483.222495741
scalar OsgEarthNet.uav[63] utilizationSecMaintenance 12554.764504259
scalar OsgEarthNet.uav[63] utilizationSecCharge 141750
scalar OsgEarthNet.uav[63] utilizationSecIdle 78412.012
scalar OsgEarthNet.uav[63] utilizationEnergyMission 125474.69315776
scalar OsgEarthNet.uav[63] utilizationEnergyMaintenance 59674.516571045
scalar OsgEarthNet.uav[63] utilizationEnergyCharge 183081.01806641
scalar OsgEarthNet.uav[63] utilizationEnergyOverdrawMission 0
scalar OsgEarthNet.uav[63] utilizationEnergyOverdrawMaintenance 0
scalar OsgEarthNet.uav[63] utilizationCountMissions 40
scalar OsgEarthNet.uav[63] utilizationCountManeuversMission 643
scalar OsgEarthNet.uav[63] utilizationCountManeuversMaintenance 81
scalar OsgEarthNet.uav[63] utilizationCountChargeState 40
scalar OsgEarthNet.uav[63] utilizationCountOverdrawnAfterMission 0
scalar OsgEarthNet.uav[63] utilizationCountIdleState 41
scalar OsgEarthNet.uav[63] utilizationFail 0
scalar OsgEarthNet.uav[63] simulationTime 259200
scalar OsgEarthNet.uav[64] utilizationSecMission 31262.603258987
scalar OsgEarthNet.uav[64] utilizationSecMaintenance 16943.592826261
scalar OsgEarthNet.uav[64] utilizationSecCharge 183040
scalar OsgEarthNet.uav[64] utilizationSecIdle 27953.802914752
scalar OsgEarthNet.uav[64] utilizationEnergyMission 148875.35498825
scalar OsgEarthNet.uav[64] utilizationEnergyMaintenance 80298.446586609
scalar OsgEarthNet.uav[64] utilizationEnergyCharge 228843.89770508
scalar OsgEarthNet.uav[64] utilizationEnergyOverdrawMission 0
scalar OsgEarthNet.uav[64] utilizationEnergyOverdrawMaintenance 0
scalar OsgEarthNet.uav[64] utilizationCountMissions 56
scalar OsgEarthNet.uav[64] utilizationCountManeuversMission 852
scalar OsgEarthNet.uav[64] utilizationCountManeuversMaintenance 113
scalar OsgEarthNet.uav[64] utilizationCountChargeState 56
scalar OsgEarthNet.uav[64] utilizationCountOverdrawnAfterMission 0
scalar OsgEarthNet.uav[64] utilizationCountIdleState 57
scalar OsgEarthNet.uav[64] utilizationFail 0
scalar OsgEarthNet.uav[64] simulationTime 259200
scalar OsgEarthNet.uav[65] utilizationSecMission 41440.021763169
scalar OsgEarthNet.uav[65] utilizationSecMaintenance 15728.08805579
scalar OsgEarthNet.uav[65] utilizationSecCharge 196439.88918104
scalar OsgEarthNet.uav[65] utilizationSecIdle 5592
scalar OsgEarthNet.uav[65] utilizationEnergyMission 199665.40757486
scalar OsgEarthNet.uav[65] utilizationEnergyMaintenance 73317.687717438
scalar OsgEarthNet.uav[65] utilizationEnergyCharge 269037.8527832
scalar OsgEarthNet.uav[65] utilizationEnergyOverdrawMission 0
scalar OsgEarthNet.uav[65] utilizationEnergyOverdrawMaintenance 0
scalar OsgEarthNet.uav[65] utilizationCountMissions 59
scalar OsgEarthNet.uav[65] utilizationCountManeuversMission 1252
scalar OsgEarthNet.uav[65] utilizationCountManeuversMaintenance 117
scalar OsgEarthNet.uav[65] utilizationCountChargeState 59
scalar OsgEarthNet.uav[65] utilizationCountOverdrawnAfterMission 0
scalar OsgEarthNet.uav[65] utilizationCountIdleState 25
scalar OsgEarthNet.uav[65] utilizationFail 0
scalar OsgEarthNet.uav[65] simulationTime 259200
scalar OsgEarthNet.uav[66] utilizationSecMission 29315.263824743
scalar OsgEarthNet.uav[66] utilizationSecMaintenance 16904.805502425
scalar OsgEarthNet.uav[66] utilizationSecCharge 176607.92967283
scalar OsgEarthNet.uav[66] utilizationSecIdle 36372
scalar OsgEarthNet.uav[66] utilizationEnergyMission 141991.19795609
scalar OsgEarthNet.uav[66] utilizationEnergyMaintenance 79846.864818573
scalar OsgEarthNet.uav[66] utilizationEnergyCharge 222213.81835938
scalar OsgEarthNet.uav[66] utilizationEnergyOverdrawMission 0
scalar OsgEarthNet.uav[66] utilizationEnergyOverdrawMaintenance 0
scalar OsgEarthNet.uav[66] utilizationCountMissions 54
scalar OsgEarthNet.uav[66] utilizationCountManeuversMission 839
scalar OsgEarthNet.uav[66] utilizationCountManeuversMaintenance 108
scalar OsgEarthNet.uav[66] utilizationCountChargeState 54
scalar OsgEarthNet.uav[66] utilizationCountOverdrawnAfterMission 0
scalar OsgEarthNet.uav[66] utilizationCountIdleState 54
scalar OsgEarthNet.uav[66] utilizationFail 0
scalar OsgEarthNet.uav[66] simulationTime 259200
scalar OsgEarthNet.uav[67] utilizationSecMission 37661.239061234
scalar OsgEarthNet.uav[67] utilizationSecMaintenance 17325.571112899
scalar OsgEarthNet.uav[67] utilizationSecCharge 195791.18731915
scalar OsgEarthNet.uav[67] utilizationSecIdle 8422.0015067221
scalar OsgEarthNet.uav[67] utilizationEnergyMission 182372.95027542
scalar OsgEarthNet.uav[67] utilizationEnergyMaintenance 80653.515720367
scalar OsgEarthNet.uav[67] utilizationEnergyCharge 264308.94165039
scalar OsgEarthNet.uav[67] utilizationEnergyOverdrawMission 0
scalar OsgEarthNet.uav[67] utilizationEnergyOverdrawMaintenance 0
scalar OsgEarthNet.uav[67] utilizationCountMissions 58
scalar OsgEarthNet.uav[67] utilizationCountManeuversMission 1277
scalar OsgEarthNet.uav[67] utilizationCountManeuversMaintenance 116
scalar OsgEarthNet.uav[67] utilizationCountChargeState 58
scalar OsgEarthNet.uav[67] utilizationCountOverdrawnAfterMission 0
scalar OsgEarthNet.uav[67] utilizationCountIdleState 30
scalar OsgEarthNet.uav[67] utilizationFail 0
scalar OsgEarthNet.uav[67] simulationTime 259200
scalar OsgEarthNet.uav[68] utilizationSecMission 39881.767936612
scalar OsgEarthNet.uav[68] utilizationSecMaintenance 15898.633341741
scalar OsgEarthNet.uav[68] utilizationSecCharge 196097.59272165
scalar OsgEarthNet.uav[68] utilizationSecIdle 7322.005
scalar OsgEarthNet.uav[68] utilizationEnergyMission 193384.84722519
scalar OsgEarthNet.uav[68] utilizationEnergyMaintenance 73494.064476013
scalar OsgEarthNet.uav[68] utilizationEnergyCharge 267562.63085938
scalar OsgEarthNet.uav[68] utilizationEnergyOverdrawMission 0
scalar OsgEarthNet.uav[68] utilizationEnergyOverdrawMaintenance 0
scalar OsgEarthNet.uav[68] utilizationCountMissions 58
scalar OsgEarthNet.uav[68] utilizationCountManeuversMission 1110
scalar OsgEarthNet.uav[68] utilizationCountManeuversMaintenance 116
scalar OsgEarthNet.uav[68] utilizationCountChargeState 58
scalar OsgEarthNet.uav[68] utilizationCountOverdrawnAfterMission 0
scalar OsgEarthNet.uav[68] utilizationCountIdleState 28
scalar OsgEarthNet.uav[68] utilizationFail 0
scalar OsgEarthNet.uav[68] simulationTime 259200
scalar OsgEarthNet.uav[69] utilizationSecMission 24909.486363783
scalar OsgEarthNet.uav[69] utilizationSecMaintenance 15859.684930844
scalar OsgEarthNet.uav[69] utilizationSecCharge 152568.81670537
scalar OsgEarthNet.uav[69] utilizationSecIdle 65862.011
scalar OsgEarthNet.uav[69] utilizationEnergyMission 121829.19079971
scalar OsgEarthNet.uav[69] utilizationEnergyMaintenance 75419.527236938
scalar OsgEarthNet.uav[69] utilizationEnergyCharge 197090.07006836
scalar OsgEarthNet.uav[69] utilizationEnergyOverdrawMission 0
scalar OsgEarthNet.uav[69] utilizationEnergyOverdrawMaintenance 0
scalar OsgEarthNet.uav[69] utilizationCountMissions 44
scalar OsgEarthNet.uav[69] utilizationCountManeuversMission 838
scalar OsgEarthNet.uav[69] utilizationCountManeuversMaintenance 88
scalar OsgEarthNet.uav[69] utilizationCountChargeState 44
scalar OsgEarthNet.uav[69] utilizationCountOverdrawnAfterMission 0
scalar OsgEarthNet.uav[69] utilizationCountIdleState 44
scalar OsgEarthNet.uav[69] utilizationFail 0
scalar OsgEarthNet.uav[69] simulationTime 259200
scalar OsgEarthNet.uav[70] utilizationSecMission 40183.240974529
scalar OsgEarthNet.uav[70] utilizationSecMaintenance 16394.885803612
scalar OsgEarthNet.uav[70] utilizationSecCharge 195489.73240872
scalar OsgEarthNet.uav[70] utilizationSecIdle 7132.1398131443
scalar OsgEarthNet.uav[70] utilizationEnergyMission 195754.26873779
scalar OsgEarthNet.uav[70] utilizationEnergyMaintenance 75724.263198853
scalar OsgEarthNet.uav[70] utilizationEnergyCharge 265708.74603271
scalar OsgEarthNet.uav[70] utilizationEnergyOverdrawMission 0
scalar OsgEarthNet.uav[70] utilizationEnergyOverdrawMaintenance 0
scalar OsgEarthNet.uav[70] utilizationCountMissions 59
scalar OsgEarthNet.uav[70] utilizationCountManeuversMission 1220
scalar OsgEarthNet.uav[70] utilizationCountManeuversMaintenance 118
scalar OsgEarthNet.uav[70] utilizationCountChargeState 59
scalar OsgEarthNet.uav[70] utilizationCountOverdrawnAfterMission 0
scalar OsgEarthNet.uav[70] utilizationCountIdleState 23
scalar OsgEarthNet.uav[70] utilizationFail 0
scalar OsgEarthNet.uav[70] simulationTime 259200
scalar OsgEarthNet.uav[71] utilizationSecMission 31117.846012096
scalar OsgEarthNet.uav[71] utilizationSecMaintenance 16745.379330457
scalar OsgEarthNet.uav[71] utilizationSecCharge 183134.76965745
scalar OsgEarthNet.uav[71] utilizationSecIdle 28202.004
scalar OsgEarthNet.uav[71] utilizationEnergyMission 147000.04670715
scalar OsgEarthNet.uav[71] utilizationEnergyMaintenance 78758.242778778
scalar OsgEarthNet.uav[71] utilizationEnergyCharge 227876.80859375
scalar OsgEarthNet.uav[71] utilizationEnergyOverdrawMission 0
scalar OsgEarthNet.uav[71] utilizationEnergyOverdrawMaintenance 0
scalar OsgEarthNet.uav[71] utilizationCountMissions 57
scalar OsgEarthNet.uav[71] utilizationCountManeuversMission 845
scalar OsgEarthNet.uav[71] utilizationCountManeuversMaintenance 114
scalar OsgEarthNet.uav[71] utilizationCountChargeState 57
scalar OsgEarthNet.uav[71] utilizationCountOverdrawnAfterMission 0
scalar OsgEarthNet.uav[71] utilizationCountIdleState 57
scalar OsgEarthNet.uav[71] utilizationFail 0
scalar OsgEarthNet.uav[71] simulationTime 259200
scalar OsgEarthNet.uav[72] utilizationSecMission 40517.415049397
scalar OsgEarthNet.uav[72] utilizationSecMaintenance 17176.390528601
scalar OsgEarthNet.uav[72] utilizationSecCharge 197376.97380809
scalar OsgEarthNet.uav[72] utilizationSecIdle 4129.2196139157
scalar OsgEarthNet.uav[72] utilizationEnergyMission 198802.73929977
scalar OsgEarthNet.uav[72] utilizationEnergyMaintenance 79512.654800415
scalar OsgEarthNet.uav[72] utilizationEnergyCharge 271889.21899414
scalar OsgEarthNet.uav[72] utilizationEnergyOverdrawMission 0
scalar OsgEarthNet.uav[72] utilizationEnergyOverdrawMaintenance 0
scalar OsgEarthNet.uav[72] utilizationCountMissions 60
scalar OsgEarthNet.uav[72] utilizationCountManeuversMission 1328
scalar OsgEarthNet.uav[72] utilizationCountManeuversMaintenance 120
scalar OsgEarthNet.uav[72] utilizationCountChargeState 60
scalar OsgEarthNet.uav[72] utilizationCountOverdrawnAfterMission 0
scalar OsgEarthNet.uav[72] utilizationCountIdleState 22
scalar OsgEarthNet.uav[72] utilizationFail 0
scalar OsgEarthNet.uav[72] simulationTime 259200
scalar OsgEarthNet.uav[73] utilizationSecMission 24308.752136124
scalar OsgEarthNet.uav[73] utilizationSecMaintenance 16519.240863876
scalar OsgEarthNet.uav[73] utilizationSecCharge 151490
scalar OsgEarthNet.uav[73] utilizationSecIdle 66882.006
scalar OsgEarthNet.uav[73] utilizationEnergyMission 118284.40122986
scalar OsgEarthNet.uav[73] utilizationEnergyMaintenance 78366.806055905
scalar OsgEarthNet.uav[73] utilizationEnergyCharge 195291.95117188
scalar OsgEarthNet.uav[73] utilizationEnergyOverdrawMission 0
scalar OsgEarthNet.uav[73] utilizationEnergyOverdrawMaintenance 0
scalar OsgEarthNet.uav[73] utilizationCountMissions 44
scalar OsgEarthNet.uav[73] utilizationCountManeuversMission 851
scalar OsgEarthNet.uav[73] utilizationCountManeuversMaintenance 88
scalar OsgEarthNet.uav[73] utilizationCountChargeState 43
scalar OsgEarthNet.uav[73] utilizationCountOverdrawnAfterMission 0
scalar OsgEarthNet.uav[73] utilizationCountIdleState 44
scalar OsgEarthNet.uav[73] utilizationFail 0
scalar OsgEarthNet.uav[73] simulationTime 259200
scalar OsgEarthNet.uav[74] utilizationSecMission 33404.853320689
scalar OsgEarthNet.uav[74] utilizationSecMaintenance 14976.634492526
scalar OsgEarthNet.uav[74] utilizationSecCharge 179833.80548775
scalar OsgEarthNet.uav[74] utilizationSecIdle 30984.705699036
scalar OsgEarthNet.uav[74] utilizationEnergyMission 156286.46834183
scalar OsgEarthNet.uav[74] utilizationEnergyMaintenance 71188.939891815
scalar OsgEarthNet.uav[74] utilizationEnergyCharge 224719.29516602
scalar OsgEarthNet.uav[74] utilizationEnergyOverdrawMission 0
scalar OsgEarthNet.uav[74] utilizationEnergyOverdrawMaintenance 0
scalar OsgEarthNet.uav[74] utilizationCountMissions 56
scalar OsgEarthNet.uav[74] utilizationCountManeuversMission 759
scalar OsgEarthNet.uav[74] utilizationCountManeuversMaintenance 112
scalar OsgEarthNet.uav[74] utilizationCountChargeState 56
scalar OsgEarthNet.uav[74] utilizationCountOverdrawnAfterMission 0
scalar OsgEarthNet.uav[74] utilizationCountIdleState 56
scalar OsgEarthNet.uav[74] utilizationFail 0
scalar OsgEarthNet.uav[74] simulationTime 259200
scalar OsgEarthNet.cs[0] usedPower 4013895.0590843
scalar OsgEarthNet.cs[0] chargedPower 4013895.0590843
scalar OsgEarthNet.cs[0] chargedMobileNodes 877
scalar OsgEarthNet.cs[0] reservations 890
scalar OsgEarthNet.cs[1] usedPower 5737985.0546617
scalar OsgEarthNet.cs[1] chargedPower 5737985.0546617
scalar OsgEarthNet.cs[1] chargedMobileNodes 1390
scalar OsgEarthNet.cs[1] reservations 1421
scalar OsgEarthNet.cs[2] usedPower 6943668.2363426
scalar OsgEarthNet.cs[2] chargedPower 6943668.2363426
scalar OsgEarthNet.cs[2] chargedMobileNodes 570
scalar OsgEarthNet.cs[2] reservations 1523

