version 2
run Szenario_Hotel_Gabelbach-217-20180712-06:18:59-16772
attr configname Szenario_Hotel_Gabelbach
attr datetime 20180712-06:18:59
attr experiment Szenario_Hotel_Gabelbach
attr inifile omnetpp.ini
attr iterationvars "$replM=2, $biWeight=0.35, $replSearchM=1, $numUAVs=100"
attr iterationvarsf replM=2,biWeight=0.35,replSearchM=1,numUAVs=100-
attr measurement "$replM=2, $biWeight=0.35, $replSearchM=1, $numUAVs=100"
attr network OsgEarthNet
attr processid 16772
attr repetition 1
attr replication #1
attr resultdir results
attr runnumber 217
attr seedset 217
itervar biWeight 0.35
itervar numUAVs 100
itervar replM 2
itervar replSearchM 1
param *.osgEarthScene.scene "\"Szenario_Hotel_Gabelbach.earth\""
param *.playgroundLatitude 50.6830269
param *.playgroundLongitude 10.8538055
param *.playgroundWidth 3500m
param *.playgroundHeight 3500m
param *.cs[0].posX 3537m
param *.cs[0].posY 965m
param *.cs[0].posZ 538m
param *.cs[1].posX 312m
param *.cs[1].posY 1262m
param *.cs[1].posZ 539m
param *.cs[2].posX 2185m
param *.cs[2].posY 3026m
param *.cs[2].posZ 777m
param *.cs[3].posX 10m
param *.cs[3].posY 2200m
param *.cs[3].posZ 560m
param *.cs[4].posX 750m
param *.cs[4].posY 200m
param *.cs[4].posZ 540m
param *.cs[5].posX 2450m
param *.cs[5].posY 180m
param *.cs[5].posZ 524m
param *.cs[6].posX 3140m
param *.cs[6].posY 1790m
param *.cs[6].posZ 606m
param *.numCSs 3
param *.uav[*].replacementMethod 2
param *.uav[*].weightedSumWeight 0.35
param *.missionControl.replacementSearchMethod 1
param *.numUAVs 100
param *.numCSs 3
param *.numUAVs 100
param *.*.timeStep 10s
param *.uav[*].commandPreviewCommandCount 20
param *.missionControl.missionFiles "\"missions\\\\Szenario_WB_Hotel_Gabelbach_Mission_Hotel.waypoints,missions\\\\Szenario_WB_Hotel_Gabelbach_Mission_Kickelhahn.waypoints,missions\\\\Szenario_WB_Hotel_Gabelbach_Mission_Ilmenau_Sportplatz.waypoints,missions\\\\Szenario_WB_Hotel_Gabelbach_Mission_Manebach_Mitte.waypoints,missions\\\\Szenario_WB_Hotel_Gabelbach_Mission_Manebach_Sued.waypoints,missions\\\\Szenario_WB_Hotel_Gabelbach_Hover_HoheSchlaufe.waypoints,missions\\\\Szenario_WB_Hotel_Gabelbach_Hover_Kickelhahn.waypoints,missions\\\\Szenario_WB_Hotel_Gabelbach_Hover_Gabelbachskopf.waypoints,missions\\\\Szenario_WB_Hotel_Gabelbach_Hover_Dachskopf.waypoints\""
param *.uav[0].startX 3537m
param *.uav[0].startY 965m
param *.uav[0].startZ 539m
param *.uav[1].startX 312m
param *.uav[1].startY 1262m
param *.uav[1].startZ 540m
param *.uav[2].startX 2185m
param *.uav[2].startY 3026m
param *.uav[2].startZ 778m
param *.uav[3].startX 3537m
param *.uav[3].startY 965m
param *.uav[3].startZ 539m
param *.uav[4].startX 312m
param *.uav[4].startY 1262m
param *.uav[4].startZ 540m
param *.uav[5].startX 2185m
param *.uav[5].startY 3026m
param *.uav[5].startZ 778m
param *.uav[6].startX 3537m
param *.uav[6].startY 965m
param *.uav[6].startZ 539m
param *.uav[7].startX 312m
param *.uav[7].startY 1262m
param *.uav[7].startZ 540m
param *.uav[8].startX 2185m
param *.uav[8].startY 3026m
param *.uav[8].startZ 778m
param *.uav[9].startX 3537m
param *.uav[9].startY 965m
param *.uav[9].startZ 539m
param *.uav[10].startX 3537m
param *.uav[10].startY 965m
param *.uav[10].startZ 539m
param *.uav[11].startX 312m
param *.uav[11].startY 1262m
param *.uav[11].startZ 540m
param *.uav[12].startX 2185m
param *.uav[12].startY 3026m
param *.uav[12].startZ 778m
param *.uav[13].startX 3537m
param *.uav[13].startY 965m
param *.uav[13].startZ 539m
param *.uav[14].startX 312m
param *.uav[14].startY 1262m
param *.uav[14].startZ 540m
param *.uav[15].startX 2185m
param *.uav[15].startY 3026m
param *.uav[15].startZ 778m
param *.uav[16].startX 3537m
param *.uav[16].startY 965m
param *.uav[16].startZ 539m
param *.uav[17].startX 312m
param *.uav[17].startY 1262m
param *.uav[17].startZ 540m
param *.uav[18].startX 2185m
param *.uav[18].startY 3026m
param *.uav[18].startZ 778m
param *.uav[19].startX 3537m
param *.uav[19].startY 965m
param *.uav[19].startZ 539m
param *.uav[20].startX 3537m
param *.uav[20].startY 965m
param *.uav[20].startZ 539m
param *.uav[21].startX 312m
param *.uav[21].startY 1262m
param *.uav[21].startZ 540m
param *.uav[22].startX 2185m
param *.uav[22].startY 3026m
param *.uav[22].startZ 778m
param *.uav[23].startX 3537m
param *.uav[23].startY 965m
param *.uav[23].startZ 539m
param *.uav[24].startX 312m
param *.uav[24].startY 1262m
param *.uav[24].startZ 540m
param *.uav[25].startX 2185m
param *.uav[25].startY 3026m
param *.uav[25].startZ 778m
param *.uav[26].startX 3537m
param *.uav[26].startY 965m
param *.uav[26].startZ 539m
param *.uav[27].startX 312m
param *.uav[27].startY 1262m
param *.uav[27].startZ 540m
param *.uav[28].startX 2185m
param *.uav[28].startY 3026m
param *.uav[28].startZ 778m
param *.uav[29].startX 3537m
param *.uav[29].startY 965m
param *.uav[29].startZ 539m
param *.uav[30].startX 3537m
param *.uav[30].startY 965m
param *.uav[30].startZ 539m
param *.uav[31].startX 312m
param *.uav[31].startY 1262m
param *.uav[31].startZ 540m
param *.uav[32].startX 2185m
param *.uav[32].startY 3026m
param *.uav[32].startZ 778m
param *.uav[33].startX 3537m
param *.uav[33].startY 965m
param *.uav[33].startZ 539m
param *.uav[34].startX 312m
param *.uav[34].startY 1262m
param *.uav[34].startZ 540m
param *.uav[35].startX 2185m
param *.uav[35].startY 3026m
param *.uav[35].startZ 778m
param *.uav[36].startX 3537m
param *.uav[36].startY 965m
param *.uav[36].startZ 539m
param *.uav[37].startX 312m
param *.uav[37].startY 1262m
param *.uav[37].startZ 540m
param *.uav[38].startX 2185m
param *.uav[38].startY 3026m
param *.uav[38].startZ 778m
param *.uav[39].startX 3537m
param *.uav[39].startY 965m
param *.uav[39].startZ 539m
param *.uav[40].startX 3537m
param *.uav[40].startY 965m
param *.uav[40].startZ 539m
param *.uav[41].startX 312m
param *.uav[41].startY 1262m
param *.uav[41].startZ 540m
param *.uav[42].startX 2185m
param *.uav[42].startY 3026m
param *.uav[42].startZ 778m
param *.uav[43].startX 3537m
param *.uav[43].startY 965m
param *.uav[43].startZ 539m
param *.uav[44].startX 312m
param *.uav[44].startY 1262m
param *.uav[44].startZ 540m
param *.uav[45].startX 2185m
param *.uav[45].startY 3026m
param *.uav[45].startZ 778m
param *.uav[46].startX 3537m
param *.uav[46].startY 965m
param *.uav[46].startZ 539m
param *.uav[47].startX 312m
param *.uav[47].startY 1262m
param *.uav[47].startZ 540m
param *.uav[48].startX 2185m
param *.uav[48].startY 3026m
param *.uav[48].startZ 778m
param *.uav[49].startX 3537m
param *.uav[49].startY 965m
param *.uav[49].startZ 539m
param *.uav[50].startX 3537m
param *.uav[50].startY 965m
param *.uav[50].startZ 539m
param *.uav[51].startX 312m
param *.uav[51].startY 1262m
param *.uav[51].startZ 540m
param *.uav[52].startX 2185m
param *.uav[52].startY 3026m
param *.uav[52].startZ 778m
param *.uav[53].startX 3537m
param *.uav[53].startY 965m
param *.uav[53].startZ 539m
param *.uav[54].startX 312m
param *.uav[54].startY 1262m
param *.uav[54].startZ 540m
param *.uav[55].startX 2185m
param *.uav[55].startY 3026m
param *.uav[55].startZ 778m
param *.uav[56].startX 3537m
param *.uav[56].startY 965m
param *.uav[56].startZ 539m
param *.uav[57].startX 312m
param *.uav[57].startY 1262m
param *.uav[57].startZ 540m
param *.uav[58].startX 2185m
param *.uav[58].startY 3026m
param *.uav[58].startZ 778m
param *.uav[59].startX 3537m
param *.uav[59].startY 965m
param *.uav[59].startZ 539m
param *.uav[60].startX 3537m
param *.uav[60].startY 965m
param *.uav[60].startZ 539m
param *.uav[61].startX 312m
param *.uav[61].startY 1262m
param *.uav[61].startZ 540m
param *.uav[62].startX 2185m
param *.uav[62].startY 3026m
param *.uav[62].startZ 778m
param *.uav[63].startX 3537m
param *.uav[63].startY 965m
param *.uav[63].startZ 539m
param *.uav[64].startX 312m
param *.uav[64].startY 1262m
param *.uav[64].startZ 540m
param *.uav[65].startX 2185m
param *.uav[65].startY 3026m
param *.uav[65].startZ 778m
param *.uav[66].startX 3537m
param *.uav[66].startY 965m
param *.uav[66].startZ 539m
param *.uav[67].startX 312m
param *.uav[67].startY 1262m
param *.uav[67].startZ 540m
param *.uav[68].startX 2185m
param *.uav[68].startY 3026m
param *.uav[68].startZ 778m
param *.uav[69].startX 3537m
param *.uav[69].startY 965m
param *.uav[69].startZ 539m
param *.uav[70].startX 3537m
param *.uav[70].startY 965m
param *.uav[70].startZ 539m
param *.uav[71].startX 312m
param *.uav[71].startY 1262m
param *.uav[71].startZ 540m
param *.uav[72].startX 2185m
param *.uav[72].startY 3026m
param *.uav[72].startZ 778m
param *.uav[73].startX 3537m
param *.uav[73].startY 965m
param *.uav[73].startZ 539m
param *.uav[74].startX 312m
param *.uav[74].startY 1262m
param *.uav[74].startZ 540m
param *.uav[75].startX 2185m
param *.uav[75].startY 3026m
param *.uav[75].startZ 778m
param *.uav[76].startX 3537m
param *.uav[76].startY 965m
param *.uav[76].startZ 539m
param *.uav[77].startX 312m
param *.uav[77].startY 1262m
param *.uav[77].startZ 540m
param *.uav[78].startX 2185m
param *.uav[78].startY 3026m
param *.uav[78].startZ 778m
param *.uav[79].startX 3537m
param *.uav[79].startY 965m
param *.uav[79].startZ 539m
param *.uav[80].startX 3537m
param *.uav[80].startY 965m
param *.uav[80].startZ 539m
param *.uav[81].startX 312m
param *.uav[81].startY 1262m
param *.uav[81].startZ 540m
param *.uav[82].startX 2185m
param *.uav[82].startY 3026m
param *.uav[82].startZ 778m
param *.uav[83].startX 3537m
param *.uav[83].startY 965m
param *.uav[83].startZ 539m
param *.uav[84].startX 312m
param *.uav[84].startY 1262m
param *.uav[84].startZ 540m
param *.uav[85].startX 2185m
param *.uav[85].startY 3026m
param *.uav[85].startZ 778m
param *.uav[86].startX 3537m
param *.uav[86].startY 965m
param *.uav[86].startZ 539m
param *.uav[87].startX 312m
param *.uav[87].startY 1262m
param *.uav[87].startZ 540m
param *.uav[88].startX 2185m
param *.uav[88].startY 3026m
param *.uav[88].startZ 778m
param *.uav[89].startX 3537m
param *.uav[89].startY 965m
param *.uav[89].startZ 539m
param *.uav[90].startX 3537m
param *.uav[90].startY 965m
param *.uav[90].startZ 539m
param *.uav[91].startX 312m
param *.uav[91].startY 1262m
param *.uav[91].startZ 540m
param *.uav[92].startX 2185m
param *.uav[92].startY 3026m
param *.uav[92].startZ 778m
param *.uav[93].startX 3537m
param *.uav[93].startY 965m
param *.uav[93].startZ 539m
param *.uav[94].startX 312m
param *.uav[94].startY 1262m
param *.uav[94].startZ 540m
param *.uav[95].startX 2185m
param *.uav[95].startY 3026m
param *.uav[95].startZ 778m
param *.uav[96].startX 3537m
param *.uav[96].startY 965m
param *.uav[96].startZ 539m
param *.uav[97].startX 312m
param *.uav[97].startY 1262m
param *.uav[97].startZ 540m
param *.uav[98].startX 2185m
param *.uav[98].startY 3026m
param *.uav[98].startZ 778m
param *.uav[99].startX 3537m
param *.uav[99].startY 965m
param *.uav[99].startZ 539m
param *.osgEarthScene.scene "\"boston.earth\""
param *.playgroundLatitude 42.3558
param *.playgroundLongitude -71.0677
param *.playgroundWidth 400m
param *.playgroundHeight 200m
param *.channelController.connectionColor "\"#0000FF40\""
param *.channelController.showConnections false
param *.uav[*].modelURL "\"quadrocopter.small.obj.15.scale.0,0,90.rot\""
param *.uav[*].labelColor "\"#FF7C00CC\""
param *.uav[*].label2Color "\"#FF7C00EE\""
param *.uav[*].batteryCapacity 5200mAh
param *.uav[*].batteryRemaining uav[index].batteryCapacity
param *.uav[*].predictionQuantile 0.95
param *.uav[*].replacementMethod 2
param *.uav[*].weightedSumWeight 0.5
param *.cs[*].modelURL "\"chargingstation_v1.osgt.2.scale.0,0,0.rot.0,0,-15e-1.trans\""
param *.cs[*].spotsWaiting 999
param *.cs[*].spotsCharging 999
param *.cs[*].chargeEffectivenessPercentage 100
param *.cs[*].nonLinearPhaseStartPercentage 85
param *.cs[*].chargeCurrent 6.0A
param *.cs[*].prioritizeFastCharge true
param *.missionControl.replacementSearchMethod 0
param *.*.timeStep 9s

scalar OsgEarthNet.uav[0] utilizationSecMission 480
scalar OsgEarthNet.uav[0] utilizationSecMaintenance 447.1303002674
scalar OsgEarthNet.uav[0] utilizationSecCharge 3520
scalar OsgEarthNet.uav[0] utilizationSecIdle 254752.86869973
scalar OsgEarthNet.uav[0] utilizationEnergyMission 2473.2976799011
scalar OsgEarthNet.uav[0] utilizationEnergyMaintenance 2164.7360343933
scalar OsgEarthNet.uav[0] utilizationEnergyCharge 4599.9755859375
scalar OsgEarthNet.uav[0] utilizationEnergyOverdrawMission 0
scalar OsgEarthNet.uav[0] utilizationEnergyOverdrawMaintenance 0
scalar OsgEarthNet.uav[0] utilizationCountMissions 1
scalar OsgEarthNet.uav[0] utilizationCountManeuversMission 24
scalar OsgEarthNet.uav[0] utilizationCountManeuversMaintenance 2
scalar OsgEarthNet.uav[0] utilizationCountChargeState 1
scalar OsgEarthNet.uav[0] utilizationCountOverdrawnAfterMission 0
scalar OsgEarthNet.uav[0] utilizationCountIdleState 2
scalar OsgEarthNet.uav[0] utilizationFail 0
scalar OsgEarthNet.uav[0] simulationTime 259200
scalar OsgEarthNet.uav[1] utilizationSecMission 5685.4003924981
scalar OsgEarthNet.uav[1] utilizationSecMaintenance 3877.0516816952
scalar OsgEarthNet.uav[1] utilizationSecCharge 37870
scalar OsgEarthNet.uav[1] utilizationSecIdle 211767.54692581
scalar OsgEarthNet.uav[1] utilizationEnergyMission 27826.97120285
scalar OsgEarthNet.uav[1] utilizationEnergyMaintenance 18600.536220551
scalar OsgEarthNet.uav[1] utilizationEnergyCharge 46655.341064453
scalar OsgEarthNet.uav[1] utilizationEnergyOverdrawMission 0
scalar OsgEarthNet.uav[1] utilizationEnergyOverdrawMaintenance 0
scalar OsgEarthNet.uav[1] utilizationCountMissions 12
scalar OsgEarthNet.uav[1] utilizationCountManeuversMission 165
scalar OsgEarthNet.uav[1] utilizationCountManeuversMaintenance 24
scalar OsgEarthNet.uav[1] utilizationCountChargeState 12
scalar OsgEarthNet.uav[1] utilizationCountOverdrawnAfterMission 0
scalar OsgEarthNet.uav[1] utilizationCountIdleState 13
scalar OsgEarthNet.uav[1] utilizationFail 0
scalar OsgEarthNet.uav[1] simulationTime 259200
scalar OsgEarthNet.uav[2] utilizationSecMission 38493.692281719
scalar OsgEarthNet.uav[2] utilizationSecMaintenance 17904.300718281
scalar OsgEarthNet.uav[2] utilizationSecCharge 195790
scalar OsgEarthNet.uav[2] utilizationSecIdle 7012.006
scalar OsgEarthNet.uav[2] utilizationEnergyMission 185863.54125448
scalar OsgEarthNet.uav[2] utilizationEnergyMaintenance 82649.434482574
scalar OsgEarthNet.uav[2] utilizationEnergyCharge 266216.73535156
scalar OsgEarthNet.uav[2] utilizationEnergyOverdrawMission 0
scalar OsgEarthNet.uav[2] utilizationEnergyOverdrawMaintenance 0
scalar OsgEarthNet.uav[2] utilizationCountMissions 58
scalar OsgEarthNet.uav[2] utilizationCountManeuversMission 1192
scalar OsgEarthNet.uav[2] utilizationCountManeuversMaintenance 117
scalar OsgEarthNet.uav[2] utilizationCountChargeState 58
scalar OsgEarthNet.uav[2] utilizationCountOverdrawnAfterMission 0
scalar OsgEarthNet.uav[2] utilizationCountIdleState 25
scalar OsgEarthNet.uav[2] utilizationFail 0
scalar OsgEarthNet.uav[2] simulationTime 259200
scalar OsgEarthNet.uav[3] utilizationSecMission 920
scalar OsgEarthNet.uav[3] utilizationSecMaintenance 894.56202711707
scalar OsgEarthNet.uav[3] utilizationSecCharge 6900
scalar OsgEarthNet.uav[3] utilizationSecIdle 250485.43697288
scalar OsgEarthNet.uav[3] utilizationEnergyMission 4518.5745315552
scalar OsgEarthNet.uav[3] utilizationEnergyMaintenance 4214.8828353882
scalar OsgEarthNet.uav[3] utilizationEnergyCharge 8893.1870117188
scalar OsgEarthNet.uav[3] utilizationEnergyOverdrawMission 0
scalar OsgEarthNet.uav[3] utilizationEnergyOverdrawMaintenance 0
scalar OsgEarthNet.uav[3] utilizationCountMissions 2
scalar OsgEarthNet.uav[3] utilizationCountManeuversMission 46
scalar OsgEarthNet.uav[3] utilizationCountManeuversMaintenance 4
scalar OsgEarthNet.uav[3] utilizationCountChargeState 2
scalar OsgEarthNet.uav[3] utilizationCountOverdrawnAfterMission 0
scalar OsgEarthNet.uav[3] utilizationCountIdleState 3
scalar OsgEarthNet.uav[3] utilizationFail 0
scalar OsgEarthNet.uav[3] simulationTime 259200
scalar OsgEarthNet.uav[4] utilizationSecMission 11421.957290485
scalar OsgEarthNet.uav[4] utilizationSecMaintenance 8449.9701738748
scalar OsgEarthNet.uav[4] utilizationSecCharge 78076.06953564
scalar OsgEarthNet.uav[4] utilizationSecIdle 161252.002
scalar OsgEarthNet.uav[4] utilizationEnergyMission 56190.717838287
scalar OsgEarthNet.uav[4] utilizationEnergyMaintenance 39967.454387665
scalar OsgEarthNet.uav[4] utilizationEnergyCharge 96647.735839844
scalar OsgEarthNet.uav[4] utilizationEnergyOverdrawMission 0
scalar OsgEarthNet.uav[4] utilizationEnergyOverdrawMaintenance 0
scalar OsgEarthNet.uav[4] utilizationCountMissions 25
scalar OsgEarthNet.uav[4] utilizationCountManeuversMission 399
scalar OsgEarthNet.uav[4] utilizationCountManeuversMaintenance 50
scalar OsgEarthNet.uav[4] utilizationCountChargeState 25
scalar OsgEarthNet.uav[4] utilizationCountOverdrawnAfterMission 0
scalar OsgEarthNet.uav[4] utilizationCountIdleState 25
scalar OsgEarthNet.uav[4] utilizationFail 0
scalar OsgEarthNet.uav[4] simulationTime 259200
scalar OsgEarthNet.uav[5] utilizationSecMission 38463.624511633
scalar OsgEarthNet.uav[5] utilizationSecMaintenance 18105.521224825
scalar OsgEarthNet.uav[5] utilizationSecCharge 197018.85126354
scalar OsgEarthNet.uav[5] utilizationSecIdle 5612.002
scalar OsgEarthNet.uav[5] utilizationEnergyMission 186272.89867401
scalar OsgEarthNet.uav[5] utilizationEnergyMaintenance 83470.140216827
scalar OsgEarthNet.uav[5] utilizationEnergyCharge 267154.37109375
scalar OsgEarthNet.uav[5] utilizationEnergyOverdrawMission 0
scalar OsgEarthNet.uav[5] utilizationEnergyOverdrawMaintenance 0
scalar OsgEarthNet.uav[5] utilizationCountMissions 59
scalar OsgEarthNet.uav[5] utilizationCountManeuversMission 1217
scalar OsgEarthNet.uav[5] utilizationCountManeuversMaintenance 118
scalar OsgEarthNet.uav[5] utilizationCountChargeState 59
scalar OsgEarthNet.uav[5] utilizationCountOverdrawnAfterMission 0
scalar OsgEarthNet.uav[5] utilizationCountIdleState 25
scalar OsgEarthNet.uav[5] utilizationFail 0
scalar OsgEarthNet.uav[5] simulationTime 259200
scalar OsgEarthNet.uav[6] utilizationSecMission 940
scalar OsgEarthNet.uav[6] utilizationSecMaintenance 894.56202711707
scalar OsgEarthNet.uav[6] utilizationSecCharge 7230
scalar OsgEarthNet.uav[6] utilizationSecIdle 250135.43697288
scalar OsgEarthNet.uav[6] utilizationEnergyMission 4837.6228103638
scalar OsgEarthNet.uav[6] utilizationEnergyMaintenance 4414.5609970093
scalar OsgEarthNet.uav[6] utilizationEnergyCharge 9466.6928710938
scalar OsgEarthNet.uav[6] utilizationEnergyOverdrawMission 0
scalar OsgEarthNet.uav[6] utilizationEnergyOverdrawMaintenance 0
scalar OsgEarthNet.uav[6] utilizationCountMissions 2
scalar OsgEarthNet.uav[6] utilizationCountManeuversMission 47
scalar OsgEarthNet.uav[6] utilizationCountManeuversMaintenance 4
scalar OsgEarthNet.uav[6] utilizationCountChargeState 2
scalar OsgEarthNet.uav[6] utilizationCountOverdrawnAfterMission 0
scalar OsgEarthNet.uav[6] utilizationCountIdleState 3
scalar OsgEarthNet.uav[6] utilizationFail 0
scalar OsgEarthNet.uav[6] simulationTime 259200
scalar OsgEarthNet.uav[7] utilizationSecMission 13091.296055505
scalar OsgEarthNet.uav[7] utilizationSecMaintenance 8804.4710207416
scalar OsgEarthNet.uav[7] utilizationSecCharge 82890.469936245
scalar OsgEarthNet.uav[7] utilizationSecIdle 154413.76198751
scalar OsgEarthNet.uav[7] utilizationEnergyMission 64792.978080749
scalar OsgEarthNet.uav[7] utilizationEnergyMaintenance 41765.237449646
scalar OsgEarthNet.uav[7] utilizationEnergyCharge 104719.30639648
scalar OsgEarthNet.uav[7] utilizationEnergyOverdrawMission 0
scalar OsgEarthNet.uav[7] utilizationEnergyOverdrawMaintenance 0
scalar OsgEarthNet.uav[7] utilizationCountMissions 25
scalar OsgEarthNet.uav[7] utilizationCountManeuversMission 491
scalar OsgEarthNet.uav[7] utilizationCountManeuversMaintenance 50
scalar OsgEarthNet.uav[7] utilizationCountChargeState 25
scalar OsgEarthNet.uav[7] utilizationCountOverdrawnAfterMission 0
scalar OsgEarthNet.uav[7] utilizationCountIdleState 25
scalar OsgEarthNet.uav[7] utilizationFail 0
scalar OsgEarthNet.uav[7] simulationTime 259200
scalar OsgEarthNet.uav[8] utilizationSecMission 40754.429051944
scalar OsgEarthNet.uav[8] utilizationSecMaintenance 16336.721788262
scalar OsgEarthNet.uav[8] utilizationSecCharge 193850
scalar OsgEarthNet.uav[8] utilizationSecIdle 8258.8481597938
scalar OsgEarthNet.uav[8] utilizationEnergyMission 194804.37024689
scalar OsgEarthNet.uav[8] utilizationEnergyMaintenance 74354.093908316
scalar OsgEarthNet.uav[8] utilizationEnergyCharge 261829.44775391
scalar OsgEarthNet.uav[8] utilizationEnergyOverdrawMission 0
scalar OsgEarthNet.uav[8] utilizationEnergyOverdrawMaintenance 0
scalar OsgEarthNet.uav[8] utilizationCountMissions 58
scalar OsgEarthNet.uav[8] utilizationCountManeuversMission 1122
scalar OsgEarthNet.uav[8] utilizationCountManeuversMaintenance 116
scalar OsgEarthNet.uav[8] utilizationCountChargeState 57
scalar OsgEarthNet.uav[8] utilizationCountOverdrawnAfterMission 0
scalar OsgEarthNet.uav[8] utilizationCountIdleState 27
scalar OsgEarthNet.uav[8] utilizationFail 0
scalar OsgEarthNet.uav[8] simulationTime 259200
scalar OsgEarthNet.uav[9] utilizationSecMission 760.62515258028
scalar OsgEarthNet.uav[9] utilizationSecMaintenance 280.27216773088
scalar OsgEarthNet.uav[9] utilizationSecCharge 3570
scalar OsgEarthNet.uav[9] utilizationSecIdle 254589.10167969
scalar OsgEarthNet.uav[9] utilizationEnergyMission 3273.5917053223
scalar OsgEarthNet.uav[9] utilizationEnergyMaintenance 1388.183177948
scalar OsgEarthNet.uav[9] utilizationEnergyCharge 4661.7739257812
scalar OsgEarthNet.uav[9] utilizationEnergyOverdrawMission 0
scalar OsgEarthNet.uav[9] utilizationEnergyOverdrawMaintenance 0
scalar OsgEarthNet.uav[9] utilizationCountMissions 1
scalar OsgEarthNet.uav[9] utilizationCountManeuversMission 12
scalar OsgEarthNet.uav[9] utilizationCountManeuversMaintenance 2
scalar OsgEarthNet.uav[9] utilizationCountChargeState 1
scalar OsgEarthNet.uav[9] utilizationCountOverdrawnAfterMission 0
scalar OsgEarthNet.uav[9] utilizationCountIdleState 2
scalar OsgEarthNet.uav[9] utilizationFail 0
scalar OsgEarthNet.uav[9] simulationTime 259200
scalar OsgEarthNet.uav[10] utilizationSecMission 1521.2503051606
scalar OsgEarthNet.uav[10] utilizationSecMaintenance 560.82569983629
scalar OsgEarthNet.uav[10] utilizationSecCharge 7220
scalar OsgEarthNet.uav[10] utilizationSecIdle 249897.922995
scalar OsgEarthNet.uav[10] utilizationEnergyMission 6945.4626998901
scalar OsgEarthNet.uav[10] utilizationEnergyMaintenance 2547.1468734741
scalar OsgEarthNet.uav[10] utilizationEnergyCharge 9492.6069335938
scalar OsgEarthNet.uav[10] utilizationEnergyOverdrawMission 0
scalar OsgEarthNet.uav[10] utilizationEnergyOverdrawMaintenance 0
scalar OsgEarthNet.uav[10] utilizationCountMissions 2
scalar OsgEarthNet.uav[10] utilizationCountManeuversMission 24
scalar OsgEarthNet.uav[10] utilizationCountManeuversMaintenance 4
scalar OsgEarthNet.uav[10] utilizationCountChargeState 2
scalar OsgEarthNet.uav[10] utilizationCountOverdrawnAfterMission 0
scalar OsgEarthNet.uav[10] utilizationCountIdleState 3
scalar OsgEarthNet.uav[10] utilizationFail 0
scalar OsgEarthNet.uav[10] simulationTime 259200
scalar OsgEarthNet.uav[11] utilizationSecMission 14121.957290485
scalar OsgEarthNet.uav[11] utilizationSecMaintenance 10055.091781913
scalar OsgEarthNet.uav[11] utilizationSecCharge 93300.943927601
scalar OsgEarthNet.uav[11] utilizationSecIdle 141722.006
scalar OsgEarthNet.uav[11] utilizationEnergyMission 68976.038486481
scalar OsgEarthNet.uav[11] utilizationEnergyMaintenance 48015.239925385
scalar OsgEarthNet.uav[11] utilizationEnergyCharge 116944.20019531
scalar OsgEarthNet.uav[11] utilizationEnergyOverdrawMission 0
scalar OsgEarthNet.uav[11] utilizationEnergyOverdrawMaintenance 0
scalar OsgEarthNet.uav[11] utilizationCountMissions 29
scalar OsgEarthNet.uav[11] utilizationCountManeuversMission 534
scalar OsgEarthNet.uav[11] utilizationCountManeuversMaintenance 58
scalar OsgEarthNet.uav[11] utilizationCountChargeState 29
scalar OsgEarthNet.uav[11] utilizationCountOverdrawnAfterMission 0
scalar OsgEarthNet.uav[11] utilizationCountIdleState 29
scalar OsgEarthNet.uav[11] utilizationFail 0
scalar OsgEarthNet.uav[11] simulationTime 259200
scalar OsgEarthNet.uav[12] utilizationSecMission 40009.636127179
scalar OsgEarthNet.uav[12] utilizationSecMaintenance 16409.014898048
scalar OsgEarthNet.uav[12] utilizationSecCharge 196389.34297477
scalar OsgEarthNet.uav[12] utilizationSecIdle 6392.005
scalar OsgEarthNet.uav[12] utilizationEnergyMission 191682.7015686
scalar OsgEarthNet.uav[12] utilizationEnergyMaintenance 74506.573020935
scalar OsgEarthNet.uav[12] utilizationEnergyCharge 265427.09130859
scalar OsgEarthNet.uav[12] utilizationEnergyOverdrawMission 0
scalar OsgEarthNet.uav[12] utilizationEnergyOverdrawMaintenance 0
scalar OsgEarthNet.uav[12] utilizationCountMissions 58
scalar OsgEarthNet.uav[12] utilizationCountManeuversMission 1085
scalar OsgEarthNet.uav[12] utilizationCountManeuversMaintenance 116
scalar OsgEarthNet.uav[12] utilizationCountChargeState 58
scalar OsgEarthNet.uav[12] utilizationCountOverdrawnAfterMission 0
scalar OsgEarthNet.uav[12] utilizationCountIdleState 23
scalar OsgEarthNet.uav[12] utilizationFail 0
scalar OsgEarthNet.uav[12] simulationTime 259200
scalar OsgEarthNet.uav[13] utilizationSecMission 480
scalar OsgEarthNet.uav[13] utilizationSecMaintenance 447.1303002674
scalar OsgEarthNet.uav[13] utilizationSecCharge 3490
scalar OsgEarthNet.uav[13] utilizationSecIdle 254782.86869973
scalar OsgEarthNet.uav[13] utilizationEnergyMission 2614.7641029358
scalar OsgEarthNet.uav[13] utilizationEnergyMaintenance 2178.232006073
scalar OsgEarthNet.uav[13] utilizationEnergyCharge 4530.7734375
scalar OsgEarthNet.uav[13] utilizationEnergyOverdrawMission 0
scalar OsgEarthNet.uav[13] utilizationEnergyOverdrawMaintenance 0
scalar OsgEarthNet.uav[13] utilizationCountMissions 1
scalar OsgEarthNet.uav[13] utilizationCountManeuversMission 24
scalar OsgEarthNet.uav[13] utilizationCountManeuversMaintenance 2
scalar OsgEarthNet.uav[13] utilizationCountChargeState 1
scalar OsgEarthNet.uav[13] utilizationCountOverdrawnAfterMission 0
scalar OsgEarthNet.uav[13] utilizationCountIdleState 2
scalar OsgEarthNet.uav[13] utilizationFail 0
scalar OsgEarthNet.uav[13] simulationTime 259200
scalar OsgEarthNet.uav[14] utilizationSecMission 10971.709655231
scalar OsgEarthNet.uav[14] utilizationSecMaintenance 7755.2049415766
scalar OsgEarthNet.uav[14] utilizationSecCharge 74143.064129048
scalar OsgEarthNet.uav[14] utilizationSecIdle 166330.02027414
scalar OsgEarthNet.uav[14] utilizationEnergyMission 52726.454490662
scalar OsgEarthNet.uav[14] utilizationEnergyMaintenance 37221.163951874
scalar OsgEarthNet.uav[14] utilizationEnergyCharge 90336.248535156
scalar OsgEarthNet.uav[14] utilizationEnergyOverdrawMission 0
scalar OsgEarthNet.uav[14] utilizationEnergyOverdrawMaintenance 0
scalar OsgEarthNet.uav[14] utilizationCountMissions 24
scalar OsgEarthNet.uav[14] utilizationCountManeuversMission 339
scalar OsgEarthNet.uav[14] utilizationCountManeuversMaintenance 48
scalar OsgEarthNet.uav[14] utilizationCountChargeState 24
scalar OsgEarthNet.uav[14] utilizationCountOverdrawnAfterMission 0
scalar OsgEarthNet.uav[14] utilizationCountIdleState 24
scalar OsgEarthNet.uav[14] utilizationFail 0
scalar OsgEarthNet.uav[14] simulationTime 259200
scalar OsgEarthNet.uav[15] utilizationSecMission 38898.691776326
scalar OsgEarthNet.uav[15] utilizationSecMaintenance 17725.85157027
scalar OsgEarthNet.uav[15] utilizationSecCharge 196780
scalar OsgEarthNet.uav[15] utilizationSecIdle 5795.4556534032
scalar OsgEarthNet.uav[15] utilizationEnergyMission 189423.79007339
scalar OsgEarthNet.uav[15] utilizationEnergyMaintenance 81283.180950832
scalar OsgEarthNet.uav[15] utilizationEnergyCharge 266119.78222656
scalar OsgEarthNet.uav[15] utilizationEnergyOverdrawMission 0
scalar OsgEarthNet.uav[15] utilizationEnergyOverdrawMaintenance 0
scalar OsgEarthNet.uav[15] utilizationCountMissions 59
scalar OsgEarthNet.uav[15] utilizationCountManeuversMission 1225
scalar OsgEarthNet.uav[15] utilizationCountManeuversMaintenance 118
scalar OsgEarthNet.uav[15] utilizationCountChargeState 58
scalar OsgEarthNet.uav[15] utilizationCountOverdrawnAfterMission 0
scalar OsgEarthNet.uav[15] utilizationCountIdleState 28
scalar OsgEarthNet.uav[15] utilizationFail 0
scalar OsgEarthNet.uav[15] simulationTime 259200
scalar OsgEarthNet.uav[16] utilizationSecMission 17082.525409157
scalar OsgEarthNet.uav[16] utilizationSecMaintenance 8406.6431837098
scalar OsgEarthNet.uav[16] utilizationSecCharge 90398.830407134
scalar OsgEarthNet.uav[16] utilizationSecIdle 143312
scalar OsgEarthNet.uav[16] utilizationEnergyMission 81143.263500214
scalar OsgEarthNet.uav[16] utilizationEnergyMaintenance 39628.795524597
scalar OsgEarthNet.uav[16] utilizationEnergyCharge 117314.68188477
scalar OsgEarthNet.uav[16] utilizationEnergyOverdrawMission 0
scalar OsgEarthNet.uav[16] utilizationEnergyOverdrawMaintenance 0
scalar OsgEarthNet.uav[16] utilizationCountMissions 26
scalar OsgEarthNet.uav[16] utilizationCountManeuversMission 426
scalar OsgEarthNet.uav[16] utilizationCountManeuversMaintenance 51
scalar OsgEarthNet.uav[16] utilizationCountChargeState 26
scalar OsgEarthNet.uav[16] utilizationCountOverdrawnAfterMission 0
scalar OsgEarthNet.uav[16] utilizationCountIdleState 26
scalar OsgEarthNet.uav[16] utilizationFail 0
scalar OsgEarthNet.uav[16] simulationTime 259200
scalar OsgEarthNet.uav[17] utilizationSecMission 13733.541816637
scalar OsgEarthNet.uav[17] utilizationSecMaintenance 8766.7705194613
scalar OsgEarthNet.uav[17] utilizationSecCharge 83608.628868708
scalar OsgEarthNet.uav[17] utilizationSecIdle 153091.05779519
scalar OsgEarthNet.uav[17] utilizationEnergyMission 66734.930015564
scalar OsgEarthNet.uav[17] utilizationEnergyMaintenance 41443.719669342
scalar OsgEarthNet.uav[17] utilizationEnergyCharge 105662.79370117
scalar OsgEarthNet.uav[17] utilizationEnergyOverdrawMission 0
scalar OsgEarthNet.uav[17] utilizationEnergyOverdrawMaintenance 0
scalar OsgEarthNet.uav[17] utilizationCountMissions 26
scalar OsgEarthNet.uav[17] utilizationCountManeuversMission 449
scalar OsgEarthNet.uav[17] utilizationCountManeuversMaintenance 52
scalar OsgEarthNet.uav[17] utilizationCountChargeState 26
scalar OsgEarthNet.uav[17] utilizationCountOverdrawnAfterMission 0
scalar OsgEarthNet.uav[17] utilizationCountIdleState 26
scalar OsgEarthNet.uav[17] utilizationFail 0
scalar OsgEarthNet.uav[17] simulationTime 259200
scalar OsgEarthNet.uav[18] utilizationSecMission 33638.405004064
scalar OsgEarthNet.uav[18] utilizationSecMaintenance 14368.437377832
scalar OsgEarthNet.uav[18] utilizationSecCharge 168773.93700419
scalar OsgEarthNet.uav[18] utilizationSecIdle 42419.219613916
scalar OsgEarthNet.uav[18] utilizationEnergyMission 161868.81163406
scalar OsgEarthNet.uav[18] utilizationEnergyMaintenance 66539.105075836
scalar OsgEarthNet.uav[18] utilizationEnergyCharge 228815.18139648
scalar OsgEarthNet.uav[18] utilizationEnergyOverdrawMission 0
scalar OsgEarthNet.uav[18] utilizationEnergyOverdrawMaintenance 0
scalar OsgEarthNet.uav[18] utilizationCountMissions 51
scalar OsgEarthNet.uav[18] utilizationCountManeuversMission 934
scalar OsgEarthNet.uav[18] utilizationCountManeuversMaintenance 102
scalar OsgEarthNet.uav[18] utilizationCountChargeState 51
scalar OsgEarthNet.uav[18] utilizationCountOverdrawnAfterMission 0
scalar OsgEarthNet.uav[18] utilizationCountIdleState 24
scalar OsgEarthNet.uav[18] utilizationFail 0
scalar OsgEarthNet.uav[18] simulationTime 259200
scalar OsgEarthNet.uav[19] utilizationSecMission 10424.376068062
scalar OsgEarthNet.uav[19] utilizationSecMaintenance 6623.2403898026
scalar OsgEarthNet.uav[19] utilizationSecCharge 63960
scalar OsgEarthNet.uav[19] utilizationSecIdle 178192.38254214
scalar OsgEarthNet.uav[19] utilizationEnergyMission 50468.912433624
scalar OsgEarthNet.uav[19] utilizationEnergyMaintenance 31644.887840271
scalar OsgEarthNet.uav[19] utilizationEnergyCharge 82920.037597656
scalar OsgEarthNet.uav[19] utilizationEnergyOverdrawMission 0
scalar OsgEarthNet.uav[19] utilizationEnergyOverdrawMaintenance 0
scalar OsgEarthNet.uav[19] utilizationCountMissions 18
scalar OsgEarthNet.uav[19] utilizationCountManeuversMission 339
scalar OsgEarthNet.uav[19] utilizationCountManeuversMaintenance 36
scalar OsgEarthNet.uav[19] utilizationCountChargeState 18
scalar OsgEarthNet.uav[19] utilizationCountOverdrawnAfterMission 0
scalar OsgEarthNet.uav[19] utilizationCountIdleState 19
scalar OsgEarthNet.uav[19] utilizationFail 0
scalar OsgEarthNet.uav[19] simulationTime 259200
scalar OsgEarthNet.uav[20] utilizationSecMission 7762.5006103211
scalar OsgEarthNet.uav[20] utilizationSecMaintenance 5334.1480666367
scalar OsgEarthNet.uav[20] utilizationSecCharge 47407.144493082
scalar OsgEarthNet.uav[20] utilizationSecIdle 198696.20582996
scalar OsgEarthNet.uav[20] utilizationEnergyMission 37784.953151703
scalar OsgEarthNet.uav[20] utilizationEnergyMaintenance 25369.64478302
scalar OsgEarthNet.uav[20] utilizationEnergyCharge 61948.016845703
scalar OsgEarthNet.uav[20] utilizationEnergyOverdrawMission 0
scalar OsgEarthNet.uav[20] utilizationEnergyOverdrawMaintenance 0
scalar OsgEarthNet.uav[20] utilizationCountMissions 14
scalar OsgEarthNet.uav[20] utilizationCountManeuversMission 284
scalar OsgEarthNet.uav[20] utilizationCountManeuversMaintenance 28
scalar OsgEarthNet.uav[20] utilizationCountChargeState 14
scalar OsgEarthNet.uav[20] utilizationCountOverdrawnAfterMission 0
scalar OsgEarthNet.uav[20] utilizationCountIdleState 14
scalar OsgEarthNet.uav[20] utilizationFail 0
scalar OsgEarthNet.uav[20] simulationTime 259200
scalar OsgEarthNet.uav[21] utilizationSecMission 13051.502855368
scalar OsgEarthNet.uav[21] utilizationSecMaintenance 9256.777327421
scalar OsgEarthNet.uav[21] utilizationSecCharge 84927.013118175
scalar OsgEarthNet.uav[21] utilizationSecIdle 151964.70569904
scalar OsgEarthNet.uav[21] utilizationEnergyMission 62973.137836456
scalar OsgEarthNet.uav[21] utilizationEnergyMaintenance 44042.74961853
scalar OsgEarthNet.uav[21] utilizationEnergyCharge 106025.79541016
scalar OsgEarthNet.uav[21] utilizationEnergyOverdrawMission 0
scalar OsgEarthNet.uav[21] utilizationEnergyOverdrawMaintenance 0
scalar OsgEarthNet.uav[21] utilizationCountMissions 27
scalar OsgEarthNet.uav[21] utilizationCountManeuversMission 466
scalar OsgEarthNet.uav[21] utilizationCountManeuversMaintenance 54
scalar OsgEarthNet.uav[21] utilizationCountChargeState 27
scalar OsgEarthNet.uav[21] utilizationCountOverdrawnAfterMission 0
scalar OsgEarthNet.uav[21] utilizationCountIdleState 27
scalar OsgEarthNet.uav[21] utilizationFail 0
scalar OsgEarthNet.uav[21] simulationTime 259200
scalar OsgEarthNet.uav[22] utilizationSecMission 39917.50004295
scalar OsgEarthNet.uav[22] utilizationSecMaintenance 17311.88035223
scalar OsgEarthNet.uav[22] utilizationSecCharge 198678.61760482
scalar OsgEarthNet.uav[22] utilizationSecIdle 3292.001
scalar OsgEarthNet.uav[22] utilizationEnergyMission 192857.80692673
scalar OsgEarthNet.uav[22] utilizationEnergyMaintenance 79111.198928833
scalar OsgEarthNet.uav[22] utilizationEnergyCharge 269705.24902344
scalar OsgEarthNet.uav[22] utilizationEnergyOverdrawMission 0
scalar OsgEarthNet.uav[22] utilizationEnergyOverdrawMaintenance 0
scalar OsgEarthNet.uav[22] utilizationCountMissions 59
scalar OsgEarthNet.uav[22] utilizationCountManeuversMission 1192
scalar OsgEarthNet.uav[22] utilizationCountManeuversMaintenance 118
scalar OsgEarthNet.uav[22] utilizationCountChargeState 59
scalar OsgEarthNet.uav[22] utilizationCountOverdrawnAfterMission 0
scalar OsgEarthNet.uav[22] utilizationCountIdleState 22
scalar OsgEarthNet.uav[22] utilizationFail 0
scalar OsgEarthNet.uav[22] simulationTime 259200
scalar OsgEarthNet.uav[23] utilizationSecMission 8923.1257629014
scalar OsgEarthNet.uav[23] utilizationSecMaintenance 6149.4805853531
scalar OsgEarthNet.uav[23] utilizationSecCharge 56140
scalar OsgEarthNet.uav[23] utilizationSecIdle 187987.39265175
scalar OsgEarthNet.uav[23] utilizationEnergyMission 43847.934661865
scalar OsgEarthNet.uav[23] utilizationEnergyMaintenance 29057.548217773
scalar OsgEarthNet.uav[23] utilizationEnergyCharge 72360.104003906
scalar OsgEarthNet.uav[23] utilizationEnergyOverdrawMission 0
scalar OsgEarthNet.uav[23] utilizationEnergyOverdrawMaintenance 0
scalar OsgEarthNet.uav[23] utilizationCountMissions 16
scalar OsgEarthNet.uav[23] utilizationCountManeuversMission 316
scalar OsgEarthNet.uav[23] utilizationCountManeuversMaintenance 32
scalar OsgEarthNet.uav[23] utilizationCountChargeState 16
scalar OsgEarthNet.uav[23] utilizationCountOverdrawnAfterMission 0
scalar OsgEarthNet.uav[23] utilizationCountIdleState 17
scalar OsgEarthNet.uav[23] utilizationFail 0
scalar OsgEarthNet.uav[23] simulationTime 259200
scalar OsgEarthNet.uav[24] utilizationSecMission 13723.453132168
scalar OsgEarthNet.uav[24] utilizationSecMaintenance 9246.5893448392
scalar OsgEarthNet.uav[24] utilizationSecCharge 88460
scalar OsgEarthNet.uav[24] utilizationSecIdle 147769.95652299
scalar OsgEarthNet.uav[24] utilizationEnergyMission 67357.014133453
scalar OsgEarthNet.uav[24] utilizationEnergyMaintenance 44054.476913452
scalar OsgEarthNet.uav[24] utilizationEnergyCharge 110552.2199707
scalar OsgEarthNet.uav[24] utilizationEnergyOverdrawMission 0
scalar OsgEarthNet.uav[24] utilizationEnergyOverdrawMaintenance 0
scalar OsgEarthNet.uav[24] utilizationCountMissions 27
scalar OsgEarthNet.uav[24] utilizationCountManeuversMission 443
scalar OsgEarthNet.uav[24] utilizationCountManeuversMaintenance 54
scalar OsgEarthNet.uav[24] utilizationCountChargeState 27
scalar OsgEarthNet.uav[24] utilizationCountOverdrawnAfterMission 0
scalar OsgEarthNet.uav[24] utilizationCountIdleState 28
scalar OsgEarthNet.uav[24] utilizationFail 0
scalar OsgEarthNet.uav[24] simulationTime 259200
scalar OsgEarthNet.uav[25] utilizationSecMission 38751.812512037
scalar OsgEarthNet.uav[25] utilizationSecMaintenance 17225.389297193
scalar OsgEarthNet.uav[25] utilizationSecCharge 198170
scalar OsgEarthNet.uav[25] utilizationSecIdle 5052.79719077
scalar OsgEarthNet.uav[25] utilizationEnergyMission 189472.18400366
scalar OsgEarthNet.uav[25] utilizationEnergyMaintenance 78848.479049683
scalar OsgEarthNet.uav[25] utilizationEnergyCharge 269608.05859375
scalar OsgEarthNet.uav[25] utilizationEnergyOverdrawMission 0
scalar OsgEarthNet.uav[25] utilizationEnergyOverdrawMaintenance 0
scalar OsgEarthNet.uav[25] utilizationCountMissions 59
scalar OsgEarthNet.uav[25] utilizationCountManeuversMission 1285
scalar OsgEarthNet.uav[25] utilizationCountManeuversMaintenance 117
scalar OsgEarthNet.uav[25] utilizationCountChargeState 59
scalar OsgEarthNet.uav[25] utilizationCountOverdrawnAfterMission 0
scalar OsgEarthNet.uav[25] utilizationCountIdleState 27
scalar OsgEarthNet.uav[25] utilizationFail 0
scalar OsgEarthNet.uav[25] simulationTime 259200
scalar OsgEarthNet.uav[26] utilizationSecMission 8734.6341068125
scalar OsgEarthNet.uav[26] utilizationSecMaintenance 4887.7687424074
scalar OsgEarthNet.uav[26] utilizationSecCharge 49310
scalar OsgEarthNet.uav[26] utilizationSecIdle 196267.59615078
scalar OsgEarthNet.uav[26] utilizationEnergyMission 41356.934837341
scalar OsgEarthNet.uav[26] utilizationEnergyMaintenance 22935.892189026
scalar OsgEarthNet.uav[26] utilizationEnergyCharge 63756.280761719
scalar OsgEarthNet.uav[26] utilizationEnergyOverdrawMission 0
scalar OsgEarthNet.uav[26] utilizationEnergyOverdrawMaintenance 0
scalar OsgEarthNet.uav[26] utilizationCountMissions 14
scalar OsgEarthNet.uav[26] utilizationCountManeuversMission 250
scalar OsgEarthNet.uav[26] utilizationCountManeuversMaintenance 28
scalar OsgEarthNet.uav[26] utilizationCountChargeState 14
scalar OsgEarthNet.uav[26] utilizationCountOverdrawnAfterMission 0
scalar OsgEarthNet.uav[26] utilizationCountIdleState 15
scalar OsgEarthNet.uav[26] utilizationFail 0
scalar OsgEarthNet.uav[26] simulationTime 259200
scalar OsgEarthNet.uav[27] utilizationSecMission 21467.357682984
scalar OsgEarthNet.uav[27] utilizationSecMaintenance 15491.201480738
scalar OsgEarthNet.uav[27] utilizationSecCharge 144490
scalar OsgEarthNet.uav[27] utilizationSecIdle 77751.439836279
scalar OsgEarthNet.uav[27] utilizationEnergyMission 106650.47544098
scalar OsgEarthNet.uav[27] utilizationEnergyMaintenance 73024.86933136
scalar OsgEarthNet.uav[27] utilizationEnergyCharge 179344.38061523
scalar OsgEarthNet.uav[27] utilizationEnergyOverdrawMission 0
scalar OsgEarthNet.uav[27] utilizationEnergyOverdrawMaintenance 0
scalar OsgEarthNet.uav[27] utilizationCountMissions 45
scalar OsgEarthNet.uav[27] utilizationCountManeuversMission 782
scalar OsgEarthNet.uav[27] utilizationCountManeuversMaintenance 90
scalar OsgEarthNet.uav[27] utilizationCountChargeState 45
scalar OsgEarthNet.uav[27] utilizationCountOverdrawnAfterMission 0
scalar OsgEarthNet.uav[27] utilizationCountIdleState 46
scalar OsgEarthNet.uav[27] utilizationFail 0
scalar OsgEarthNet.uav[27] simulationTime 259200
scalar OsgEarthNet.uav[28] utilizationSecMission 39647.666852343
scalar OsgEarthNet.uav[28] utilizationSecMaintenance 16989.210908861
scalar OsgEarthNet.uav[28] utilizationSecCharge 196113.69589151
scalar OsgEarthNet.uav[28] utilizationSecIdle 6449.4253472904
scalar OsgEarthNet.uav[28] utilizationEnergyMission 190539.40446472
scalar OsgEarthNet.uav[28] utilizationEnergyMaintenance 78568.579399109
scalar OsgEarthNet.uav[28] utilizationEnergyCharge 266047.37841797
scalar OsgEarthNet.uav[28] utilizationEnergyOverdrawMission 0
scalar OsgEarthNet.uav[28] utilizationEnergyOverdrawMaintenance 0
scalar OsgEarthNet.uav[28] utilizationCountMissions 58
scalar OsgEarthNet.uav[28] utilizationCountManeuversMission 1138
scalar OsgEarthNet.uav[28] utilizationCountManeuversMaintenance 116
scalar OsgEarthNet.uav[28] utilizationCountChargeState 58
scalar OsgEarthNet.uav[28] utilizationCountOverdrawnAfterMission 0
scalar OsgEarthNet.uav[28] utilizationCountIdleState 26
scalar OsgEarthNet.uav[28] utilizationFail 0
scalar OsgEarthNet.uav[28] simulationTime 259200
scalar OsgEarthNet.uav[29] utilizationSecMission 8053.4928767311
scalar OsgEarthNet.uav[29] utilizationSecMaintenance 4946.116354937
scalar OsgEarthNet.uav[29] utilizationSecCharge 49070
scalar OsgEarthNet.uav[29] utilizationSecIdle 197130.38976833
scalar OsgEarthNet.uav[29] utilizationEnergyMission 38591.667388916
scalar OsgEarthNet.uav[29] utilizationEnergyMaintenance 23792.951301575
scalar OsgEarthNet.uav[29] utilizationEnergyCharge 63049.540527344
scalar OsgEarthNet.uav[29] utilizationEnergyOverdrawMission 0
scalar OsgEarthNet.uav[29] utilizationEnergyOverdrawMaintenance 0
scalar OsgEarthNet.uav[29] utilizationCountMissions 14
scalar OsgEarthNet.uav[29] utilizationCountManeuversMission 251
scalar OsgEarthNet.uav[29] utilizationCountManeuversMaintenance 28
scalar OsgEarthNet.uav[29] utilizationCountChargeState 14
scalar OsgEarthNet.uav[29] utilizationCountOverdrawnAfterMission 0
scalar OsgEarthNet.uav[29] utilizationCountIdleState 15
scalar OsgEarthNet.uav[29] utilizationFail 0
scalar OsgEarthNet.uav[29] simulationTime 259200
scalar OsgEarthNet.uav[30] utilizationSecMission 7831.6174189903
scalar OsgEarthNet.uav[30] utilizationSecMaintenance 6068.9173099575
scalar OsgEarthNet.uav[30] utilizationSecCharge 52515.763061938
scalar OsgEarthNet.uav[30] utilizationSecIdle 192783.70120911
scalar OsgEarthNet.uav[30] utilizationEnergyMission 39879.004314423
scalar OsgEarthNet.uav[30] utilizationEnergyMaintenance 28922.928791046
scalar OsgEarthNet.uav[30] utilizationEnergyCharge 68232.896972656
scalar OsgEarthNet.uav[30] utilizationEnergyOverdrawMission 0
scalar OsgEarthNet.uav[30] utilizationEnergyOverdrawMaintenance 0
scalar OsgEarthNet.uav[30] utilizationCountMissions 15
scalar OsgEarthNet.uav[30] utilizationCountManeuversMission 318
scalar OsgEarthNet.uav[30] utilizationCountManeuversMaintenance 30
scalar OsgEarthNet.uav[30] utilizationCountChargeState 15
scalar OsgEarthNet.uav[30] utilizationCountOverdrawnAfterMission 0
scalar OsgEarthNet.uav[30] utilizationCountIdleState 15
scalar OsgEarthNet.uav[30] utilizationFail 0
scalar OsgEarthNet.uav[30] simulationTime 259200
scalar OsgEarthNet.uav[31] utilizationSecMission 19478.720988336
scalar OsgEarthNet.uav[31] utilizationSecMaintenance 15077.342785638
scalar OsgEarthNet.uav[31] utilizationSecCharge 136620
scalar OsgEarthNet.uav[31] utilizationSecIdle 88023.935226027
scalar OsgEarthNet.uav[31] utilizationEnergyMission 95150.025314331
scalar OsgEarthNet.uav[31] utilizationEnergyMaintenance 71501.853481293
scalar OsgEarthNet.uav[31] utilizationEnergyCharge 166963.93969727
scalar OsgEarthNet.uav[31] utilizationEnergyOverdrawMission 0
scalar OsgEarthNet.uav[31] utilizationEnergyOverdrawMaintenance 0
scalar OsgEarthNet.uav[31] utilizationCountMissions 44
scalar OsgEarthNet.uav[31] utilizationCountManeuversMission 726
scalar OsgEarthNet.uav[31] utilizationCountManeuversMaintenance 88
scalar OsgEarthNet.uav[31] utilizationCountChargeState 44
scalar OsgEarthNet.uav[31] utilizationCountOverdrawnAfterMission 0
scalar OsgEarthNet.uav[31] utilizationCountIdleState 45
scalar OsgEarthNet.uav[31] utilizationFail 0
scalar OsgEarthNet.uav[31] simulationTime 259200
scalar OsgEarthNet.uav[32] utilizationSecMission 39137.396208623
scalar OsgEarthNet.uav[32] utilizationSecMaintenance 17835.44071896
scalar OsgEarthNet.uav[32] utilizationSecCharge 197445.15907242
scalar OsgEarthNet.uav[32] utilizationSecIdle 4782.003
scalar OsgEarthNet.uav[32] utilizationEnergyMission 188121.65227127
scalar OsgEarthNet.uav[32] utilizationEnergyMaintenance 82688.706802368
scalar OsgEarthNet.uav[32] utilizationEnergyCharge 269914.05981445
scalar OsgEarthNet.uav[32] utilizationEnergyOverdrawMission 0
scalar OsgEarthNet.uav[32] utilizationEnergyOverdrawMaintenance 0
scalar OsgEarthNet.uav[32] utilizationCountMissions 59
scalar OsgEarthNet.uav[32] utilizationCountManeuversMission 1242
scalar OsgEarthNet.uav[32] utilizationCountManeuversMaintenance 118
scalar OsgEarthNet.uav[32] utilizationCountChargeState 59
scalar OsgEarthNet.uav[32] utilizationCountOverdrawnAfterMission 0
scalar OsgEarthNet.uav[32] utilizationCountIdleState 20
scalar OsgEarthNet.uav[32] utilizationFail 0
scalar OsgEarthNet.uav[32] simulationTime 259200
scalar OsgEarthNet.uav[33] utilizationSecMission 10094.743181892
scalar OsgEarthNet.uav[33] utilizationSecMaintenance 5779.9004398517
scalar OsgEarthNet.uav[33] utilizationSecCharge 59740
scalar OsgEarthNet.uav[33] utilizationSecIdle 183585.35537826
scalar OsgEarthNet.uav[33] utilizationEnergyMission 49560.101463318
scalar OsgEarthNet.uav[33] utilizationEnergyMaintenance 27715.418254852
scalar OsgEarthNet.uav[33] utilizationEnergyCharge 77097.483886719
scalar OsgEarthNet.uav[33] utilizationEnergyOverdrawMission 0
scalar OsgEarthNet.uav[33] utilizationEnergyOverdrawMaintenance 0
scalar OsgEarthNet.uav[33] utilizationCountMissions 17
scalar OsgEarthNet.uav[33] utilizationCountManeuversMission 301
scalar OsgEarthNet.uav[33] utilizationCountManeuversMaintenance 34
scalar OsgEarthNet.uav[33] utilizationCountChargeState 17
scalar OsgEarthNet.uav[33] utilizationCountOverdrawnAfterMission 0
scalar OsgEarthNet.uav[33] utilizationCountIdleState 18
scalar OsgEarthNet.uav[33] utilizationFail 0
scalar OsgEarthNet.uav[33] simulationTime 259200
scalar OsgEarthNet.uav[34] utilizationSecMission 24851.818893965
scalar OsgEarthNet.uav[34] utilizationSecMaintenance 13470.566833955
scalar OsgEarthNet.uav[34] utilizationSecCharge 141775.60227208
scalar OsgEarthNet.uav[34] utilizationSecIdle 79102.011
scalar OsgEarthNet.uav[34] utilizationEnergyMission 121015.88814163
scalar OsgEarthNet.uav[34] utilizationEnergyMaintenance 63605.570240021
scalar OsgEarthNet.uav[34] utilizationEnergyCharge 181695.58868408
scalar OsgEarthNet.uav[34] utilizationEnergyOverdrawMission 0
scalar OsgEarthNet.uav[34] utilizationEnergyOverdrawMaintenance 0
scalar OsgEarthNet.uav[34] utilizationCountMissions 43
scalar OsgEarthNet.uav[34] utilizationCountManeuversMission 765
scalar OsgEarthNet.uav[34] utilizationCountManeuversMaintenance 86
scalar OsgEarthNet.uav[34] utilizationCountChargeState 43
scalar OsgEarthNet.uav[34] utilizationCountOverdrawnAfterMission 0
scalar OsgEarthNet.uav[34] utilizationCountIdleState 41
scalar OsgEarthNet.uav[34] utilizationFail 0
scalar OsgEarthNet.uav[34] simulationTime 259200
scalar OsgEarthNet.uav[35] utilizationSecMission 12507.91212192
scalar OsgEarthNet.uav[35] utilizationSecMaintenance 7384.448026859
scalar OsgEarthNet.uav[35] utilizationSecCharge 72864.263009383
scalar OsgEarthNet.uav[35] utilizationSecIdle 166443.37584184
scalar OsgEarthNet.uav[35] utilizationEnergyMission 60672.126995087
scalar OsgEarthNet.uav[35] utilizationEnergyMaintenance 35202.631385803
scalar OsgEarthNet.uav[35] utilizationEnergyCharge 95187.501953125
scalar OsgEarthNet.uav[35] utilizationEnergyOverdrawMission 0
scalar OsgEarthNet.uav[35] utilizationEnergyOverdrawMaintenance 0
scalar OsgEarthNet.uav[35] utilizationCountMissions 21
scalar OsgEarthNet.uav[35] utilizationCountManeuversMission 370
scalar OsgEarthNet.uav[35] utilizationCountManeuversMaintenance 42
scalar OsgEarthNet.uav[35] utilizationCountChargeState 21
scalar OsgEarthNet.uav[35] utilizationCountOverdrawnAfterMission 0
scalar OsgEarthNet.uav[35] utilizationCountIdleState 21
scalar OsgEarthNet.uav[35] utilizationFail 0
scalar OsgEarthNet.uav[35] simulationTime 259200
scalar OsgEarthNet.uav[36] utilizationSecMission 16009.073249844
scalar OsgEarthNet.uav[36] utilizationSecMaintenance 9712.6548906404
scalar OsgEarthNet.uav[36] utilizationSecCharge 96081.753579213
scalar OsgEarthNet.uav[36] utilizationSecIdle 137396.5172803
scalar OsgEarthNet.uav[36] utilizationEnergyMission 76806.154949188
scalar OsgEarthNet.uav[36] utilizationEnergyMaintenance 46415.466373443
scalar OsgEarthNet.uav[36] utilizationEnergyCharge 124620.98388672
scalar OsgEarthNet.uav[36] utilizationEnergyOverdrawMission 0
scalar OsgEarthNet.uav[36] utilizationEnergyOverdrawMaintenance 0
scalar OsgEarthNet.uav[36] utilizationCountMissions 27
scalar OsgEarthNet.uav[36] utilizationCountManeuversMission 490
scalar OsgEarthNet.uav[36] utilizationCountManeuversMaintenance 54
scalar OsgEarthNet.uav[36] utilizationCountChargeState 27
scalar OsgEarthNet.uav[36] utilizationCountOverdrawnAfterMission 0
scalar OsgEarthNet.uav[36] utilizationCountIdleState 27
scalar OsgEarthNet.uav[36] utilizationFail 0
scalar OsgEarthNet.uav[36] simulationTime 259200
scalar OsgEarthNet.uav[37] utilizationSecMission 18193.253345991
scalar OsgEarthNet.uav[37] utilizationSecMaintenance 12499.155944929
scalar OsgEarthNet.uav[37] utilizationSecCharge 118745.58270908
scalar OsgEarthNet.uav[37] utilizationSecIdle 109762.007
scalar OsgEarthNet.uav[37] utilizationEnergyMission 88567.925815582
scalar OsgEarthNet.uav[37] utilizationEnergyMaintenance 59321.961219788
scalar OsgEarthNet.uav[37] utilizationEnergyCharge 147027.50415039
scalar OsgEarthNet.uav[37] utilizationEnergyOverdrawMission 0
scalar OsgEarthNet.uav[37] utilizationEnergyOverdrawMaintenance 0
scalar OsgEarthNet.uav[37] utilizationCountMissions 38
scalar OsgEarthNet.uav[37] utilizationCountManeuversMission 574
scalar OsgEarthNet.uav[37] utilizationCountManeuversMaintenance 76
scalar OsgEarthNet.uav[37] utilizationCountChargeState 38
scalar OsgEarthNet.uav[37] utilizationCountOverdrawnAfterMission 0
scalar OsgEarthNet.uav[37] utilizationCountIdleState 38
scalar OsgEarthNet.uav[37] utilizationFail 0
scalar OsgEarthNet.uav[37] simulationTime 259200
scalar OsgEarthNet.uav[38] utilizationSecMission 39709.878084044
scalar OsgEarthNet.uav[38] utilizationSecMaintenance 17387.347010796
scalar OsgEarthNet.uav[38] utilizationSecCharge 198640.77390516
scalar OsgEarthNet.uav[38] utilizationSecIdle 3462
scalar OsgEarthNet.uav[38] utilizationEnergyMission 191192.13684845
scalar OsgEarthNet.uav[38] utilizationEnergyMaintenance 79465.957538605
scalar OsgEarthNet.uav[38] utilizationEnergyCharge 271219.66210938
scalar OsgEarthNet.uav[38] utilizationEnergyOverdrawMission 0
scalar OsgEarthNet.uav[38] utilizationEnergyOverdrawMaintenance 0
scalar OsgEarthNet.uav[38] utilizationCountMissions 59
scalar OsgEarthNet.uav[38] utilizationCountManeuversMission 1185
scalar OsgEarthNet.uav[38] utilizationCountManeuversMaintenance 118
scalar OsgEarthNet.uav[38] utilizationCountChargeState 59
scalar OsgEarthNet.uav[38] utilizationCountOverdrawnAfterMission 0
scalar OsgEarthNet.uav[38] utilizationCountIdleState 23
scalar OsgEarthNet.uav[38] utilizationFail 0
scalar OsgEarthNet.uav[38] simulationTime 259200
scalar OsgEarthNet.uav[39] utilizationSecMission 12884.376068062
scalar OsgEarthNet.uav[39] utilizationSecMaintenance 8860.399024051
scalar OsgEarthNet.uav[39] utilizationSecCharge 80620
scalar OsgEarthNet.uav[39] utilizationSecIdle 156835.22390789
scalar OsgEarthNet.uav[39] utilizationEnergyMission 63166.69196701
scalar OsgEarthNet.uav[39] utilizationEnergyMaintenance 42341.388874054
scalar OsgEarthNet.uav[39] utilizationEnergyCharge 103834.06982422
scalar OsgEarthNet.uav[39] utilizationEnergyOverdrawMission 0
scalar OsgEarthNet.uav[39] utilizationEnergyOverdrawMaintenance 0
scalar OsgEarthNet.uav[39] utilizationCountMissions 23
scalar OsgEarthNet.uav[39] utilizationCountManeuversMission 462
scalar OsgEarthNet.uav[39] utilizationCountManeuversMaintenance 46
scalar OsgEarthNet.uav[39] utilizationCountChargeState 23
scalar OsgEarthNet.uav[39] utilizationCountOverdrawnAfterMission 0
scalar OsgEarthNet.uav[39] utilizationCountIdleState 24
scalar OsgEarthNet.uav[39] utilizationFail 0
scalar OsgEarthNet.uav[39] simulationTime 259200
scalar OsgEarthNet.uav[40] utilizationSecMission 12485.626373223
scalar OsgEarthNet.uav[40] utilizationSecMaintenance 7369.677214956
scalar OsgEarthNet.uav[40] utilizationSecCharge 73470
scalar OsgEarthNet.uav[40] utilizationSecIdle 165874.69541182
scalar OsgEarthNet.uav[40] utilizationEnergyMission 59820.501529694
scalar OsgEarthNet.uav[40] utilizationEnergyMaintenance 34862.705532074
scalar OsgEarthNet.uav[40] utilizationEnergyCharge 94486.35546875
scalar OsgEarthNet.uav[40] utilizationEnergyOverdrawMission 0
scalar OsgEarthNet.uav[40] utilizationEnergyOverdrawMaintenance 0
scalar OsgEarthNet.uav[40] utilizationCountMissions 21
scalar OsgEarthNet.uav[40] utilizationCountManeuversMission 390
scalar OsgEarthNet.uav[40] utilizationCountManeuversMaintenance 42
scalar OsgEarthNet.uav[40] utilizationCountChargeState 21
scalar OsgEarthNet.uav[40] utilizationCountOverdrawnAfterMission 0
scalar OsgEarthNet.uav[40] utilizationCountIdleState 22
scalar OsgEarthNet.uav[40] utilizationFail 0
scalar OsgEarthNet.uav[40] simulationTime 259200
scalar OsgEarthNet.uav[41] utilizationSecMission 16454.166361502
scalar OsgEarthNet.uav[41] utilizationSecMaintenance 11083.827638498
scalar OsgEarthNet.uav[41] utilizationSecCharge 106260
scalar OsgEarthNet.uav[41] utilizationSecIdle 125402.005
scalar OsgEarthNet.uav[41] utilizationEnergyMission 78525.545091735
scalar OsgEarthNet.uav[41] utilizationEnergyMaintenance 52882.780662537
scalar OsgEarthNet.uav[41] utilizationEnergyCharge 130127.67944336
scalar OsgEarthNet.uav[41] utilizationEnergyOverdrawMission 0
scalar OsgEarthNet.uav[41] utilizationEnergyOverdrawMaintenance 0
scalar OsgEarthNet.uav[41] utilizationCountMissions 34
scalar OsgEarthNet.uav[41] utilizationCountManeuversMission 469
scalar OsgEarthNet.uav[41] utilizationCountManeuversMaintenance 69
scalar OsgEarthNet.uav[41] utilizationCountChargeState 34
scalar OsgEarthNet.uav[41] utilizationCountOverdrawnAfterMission 0
scalar OsgEarthNet.uav[41] utilizationCountIdleState 35
scalar OsgEarthNet.uav[41] utilizationFail 0
scalar OsgEarthNet.uav[41] simulationTime 259200
scalar OsgEarthNet.uav[42] utilizationSecMission 39595.02476084
scalar OsgEarthNet.uav[42] utilizationSecMaintenance 16628.009871135
scalar OsgEarthNet.uav[42] utilizationSecCharge 196954.96136802
scalar OsgEarthNet.uav[42] utilizationSecIdle 6022.003
scalar OsgEarthNet.uav[42] utilizationEnergyMission 192013.64253616
scalar OsgEarthNet.uav[42] utilizationEnergyMaintenance 77104.561393738
scalar OsgEarthNet.uav[42] utilizationEnergyCharge 267929.97607422
scalar OsgEarthNet.uav[42] utilizationEnergyOverdrawMission 0
scalar OsgEarthNet.uav[42] utilizationEnergyOverdrawMaintenance 0
scalar OsgEarthNet.uav[42] utilizationCountMissions 58
scalar OsgEarthNet.uav[42] utilizationCountManeuversMission 1190
scalar OsgEarthNet.uav[42] utilizationCountManeuversMaintenance 116
scalar OsgEarthNet.uav[42] utilizationCountChargeState 58
scalar OsgEarthNet.uav[42] utilizationCountOverdrawnAfterMission 0
scalar OsgEarthNet.uav[42] utilizationCountIdleState 23
scalar OsgEarthNet.uav[42] utilizationFail 0
scalar OsgEarthNet.uav[42] simulationTime 259200
scalar OsgEarthNet.uav[43] utilizationSecMission 13524.376068062
scalar OsgEarthNet.uav[43] utilizationSecMaintenance 9045.7087227858
scalar OsgEarthNet.uav[43] utilizationSecCharge 84480
scalar OsgEarthNet.uav[43] utilizationSecIdle 152149.91420915
scalar OsgEarthNet.uav[43] utilizationEnergyMission 67878.869544983
scalar OsgEarthNet.uav[43] utilizationEnergyMaintenance 42521.55569458
scalar OsgEarthNet.uav[43] utilizationEnergyCharge 108730.625
scalar OsgEarthNet.uav[43] utilizationEnergyOverdrawMission 0
scalar OsgEarthNet.uav[43] utilizationEnergyOverdrawMaintenance 0
scalar OsgEarthNet.uav[43] utilizationCountMissions 24
scalar OsgEarthNet.uav[43] utilizationCountManeuversMission 494
scalar OsgEarthNet.uav[43] utilizationCountManeuversMaintenance 48
scalar OsgEarthNet.uav[43] utilizationCountChargeState 24
scalar OsgEarthNet.uav[43] utilizationCountOverdrawnAfterMission 0
scalar OsgEarthNet.uav[43] utilizationCountIdleState 25
scalar OsgEarthNet.uav[43] utilizationFail 0
scalar OsgEarthNet.uav[43] simulationTime 259200
scalar OsgEarthNet.uav[44] utilizationSecMission 20789.396644253
scalar OsgEarthNet.uav[44] utilizationSecMaintenance 14200.120766326
scalar OsgEarthNet.uav[44] utilizationSecCharge 134638.47158942
scalar OsgEarthNet.uav[44] utilizationSecIdle 89572.01
scalar OsgEarthNet.uav[44] utilizationEnergyMission 101461.80097961
scalar OsgEarthNet.uav[44] utilizationEnergyMaintenance 67848.389671326
scalar OsgEarthNet.uav[44] utilizationEnergyCharge 168498.83984375
scalar OsgEarthNet.uav[44] utilizationEnergyOverdrawMission 0
scalar OsgEarthNet.uav[44] utilizationEnergyOverdrawMaintenance 0
scalar OsgEarthNet.uav[44] utilizationCountMissions 42
scalar OsgEarthNet.uav[44] utilizationCountManeuversMission 697
scalar OsgEarthNet.uav[44] utilizationCountManeuversMaintenance 84
scalar OsgEarthNet.uav[44] utilizationCountChargeState 42
scalar OsgEarthNet.uav[44] utilizationCountOverdrawnAfterMission 0
scalar OsgEarthNet.uav[44] utilizationCountIdleState 42
scalar OsgEarthNet.uav[44] utilizationFail 0
scalar OsgEarthNet.uav[44] simulationTime 259200
scalar OsgEarthNet.uav[45] utilizationSecMission 38858.463477931
scalar OsgEarthNet.uav[45] utilizationSecMaintenance 17176.824770155
scalar OsgEarthNet.uav[45] utilizationSecCharge 195130
scalar OsgEarthNet.uav[45] utilizationSecIdle 8034.7107519144
scalar OsgEarthNet.uav[45] utilizationEnergyMission 187764.52611188
scalar OsgEarthNet.uav[45] utilizationEnergyMaintenance 79244.962608337
scalar OsgEarthNet.uav[45] utilizationEnergyCharge 265874.47802734
scalar OsgEarthNet.uav[45] utilizationEnergyOverdrawMission 0
scalar OsgEarthNet.uav[45] utilizationEnergyOverdrawMaintenance 0
scalar OsgEarthNet.uav[45] utilizationCountMissions 58
scalar OsgEarthNet.uav[45] utilizationCountManeuversMission 1231
scalar OsgEarthNet.uav[45] utilizationCountManeuversMaintenance 117
scalar OsgEarthNet.uav[45] utilizationCountChargeState 58
scalar OsgEarthNet.uav[45] utilizationCountOverdrawnAfterMission 0
scalar OsgEarthNet.uav[45] utilizationCountIdleState 28
scalar OsgEarthNet.uav[45] utilizationFail 0
scalar OsgEarthNet.uav[45] simulationTime 259200
scalar OsgEarthNet.uav[46] utilizationSecMission 17966.251525803
scalar OsgEarthNet.uav[46] utilizationSecMaintenance 12037.160631381
scalar OsgEarthNet.uav[46] utilizationSecCharge 112480
scalar OsgEarthNet.uav[46] utilizationSecIdle 116716.58684282
scalar OsgEarthNet.uav[46] utilizationEnergyMission 88394.895591736
scalar OsgEarthNet.uav[46] utilizationEnergyMaintenance 57159.150909424
scalar OsgEarthNet.uav[46] utilizationEnergyCharge 144805.61816406
scalar OsgEarthNet.uav[46] utilizationEnergyOverdrawMission 0
scalar OsgEarthNet.uav[46] utilizationEnergyOverdrawMaintenance 0
scalar OsgEarthNet.uav[46] utilizationCountMissions 32
scalar OsgEarthNet.uav[46] utilizationCountManeuversMission 638
scalar OsgEarthNet.uav[46] utilizationCountManeuversMaintenance 64
scalar OsgEarthNet.uav[46] utilizationCountChargeState 32
scalar OsgEarthNet.uav[46] utilizationCountOverdrawnAfterMission 0
scalar OsgEarthNet.uav[46] utilizationCountIdleState 33
scalar OsgEarthNet.uav[46] utilizationFail 0
scalar OsgEarthNet.uav[46] simulationTime 259200
scalar OsgEarthNet.uav[47] utilizationSecMission 18491.642405384
scalar OsgEarthNet.uav[47] utilizationSecMaintenance 11789.493153152
scalar OsgEarthNet.uav[47] utilizationSecCharge 116410
scalar OsgEarthNet.uav[47] utilizationSecIdle 112508.86344146
scalar OsgEarthNet.uav[47] utilizationEnergyMission 88148.538135529
scalar OsgEarthNet.uav[47] utilizationEnergyMaintenance 56070.719387054
scalar OsgEarthNet.uav[47] utilizationEnergyCharge 143291.59960938
scalar OsgEarthNet.uav[47] utilizationEnergyOverdrawMission 0
scalar OsgEarthNet.uav[47] utilizationEnergyOverdrawMaintenance 0
scalar OsgEarthNet.uav[47] utilizationCountMissions 37
scalar OsgEarthNet.uav[47] utilizationCountManeuversMission 508
scalar OsgEarthNet.uav[47] utilizationCountManeuversMaintenance 74
scalar OsgEarthNet.uav[47] utilizationCountChargeState 37
scalar OsgEarthNet.uav[47] utilizationCountOverdrawnAfterMission 0
scalar OsgEarthNet.uav[47] utilizationCountIdleState 38
scalar OsgEarthNet.uav[47] utilizationFail 0
scalar OsgEarthNet.uav[47] simulationTime 259200
scalar OsgEarthNet.uav[48] utilizationSecMission 39494.634897619
scalar OsgEarthNet.uav[48] utilizationSecMaintenance 17182.97261789
scalar OsgEarthNet.uav[48] utilizationSecCharge 194650.38648449
scalar OsgEarthNet.uav[48] utilizationSecIdle 7872.005
scalar OsgEarthNet.uav[48] utilizationEnergyMission 189071.15082932
scalar OsgEarthNet.uav[48] utilizationEnergyMaintenance 79336.692222595
scalar OsgEarthNet.uav[48] utilizationEnergyCharge 265733.21459961
scalar OsgEarthNet.uav[48] utilizationEnergyOverdrawMission 0
scalar OsgEarthNet.uav[48] utilizationEnergyOverdrawMaintenance 0
scalar OsgEarthNet.uav[48] utilizationCountMissions 58
scalar OsgEarthNet.uav[48] utilizationCountManeuversMission 1166
scalar OsgEarthNet.uav[48] utilizationCountManeuversMaintenance 116
scalar OsgEarthNet.uav[48] utilizationCountChargeState 58
scalar OsgEarthNet.uav[48] utilizationCountOverdrawnAfterMission 0
scalar OsgEarthNet.uav[48] utilizationCountIdleState 26
scalar OsgEarthNet.uav[48] utilizationFail 0
scalar OsgEarthNet.uav[48] simulationTime 259200
scalar OsgEarthNet.uav[49] utilizationSecMission 18247.501830963
scalar OsgEarthNet.uav[49] utilizationSecMaintenance 11975.5062078
scalar OsgEarthNet.uav[49] utilizationSecCharge 109634.97896124
scalar OsgEarthNet.uav[49] utilizationSecIdle 119342.012
scalar OsgEarthNet.uav[49] utilizationEnergyMission 87636.05255127
scalar OsgEarthNet.uav[49] utilizationEnergyMaintenance 56549.813426971
scalar OsgEarthNet.uav[49] utilizationEnergyCharge 141569.2878418
scalar OsgEarthNet.uav[49] utilizationEnergyOverdrawMission 0
scalar OsgEarthNet.uav[49] utilizationEnergyOverdrawMaintenance 0
scalar OsgEarthNet.uav[49] utilizationCountMissions 32
scalar OsgEarthNet.uav[49] utilizationCountManeuversMission 600
scalar OsgEarthNet.uav[49] utilizationCountManeuversMaintenance 64
scalar OsgEarthNet.uav[49] utilizationCountChargeState 32
scalar OsgEarthNet.uav[49] utilizationCountOverdrawnAfterMission 0
scalar OsgEarthNet.uav[49] utilizationCountIdleState 32
scalar OsgEarthNet.uav[49] utilizationFail 0
scalar OsgEarthNet.uav[49] simulationTime 259200
scalar OsgEarthNet.uav[50] utilizationSecMission 18178.385022294
scalar OsgEarthNet.uav[50] utilizationSecMaintenance 11230.736964479
scalar OsgEarthNet.uav[50] utilizationSecCharge 105868.87201323
scalar OsgEarthNet.uav[50] utilizationSecIdle 123922.005
scalar OsgEarthNet.uav[50] utilizationEnergyMission 87221.21705246
scalar OsgEarthNet.uav[50] utilizationEnergyMaintenance 53053.809253692
scalar OsgEarthNet.uav[50] utilizationEnergyCharge 136794.29962158
scalar OsgEarthNet.uav[50] utilizationEnergyOverdrawMission 0
scalar OsgEarthNet.uav[50] utilizationEnergyOverdrawMaintenance 0
scalar OsgEarthNet.uav[50] utilizationCountMissions 31
scalar OsgEarthNet.uav[50] utilizationCountManeuversMission 566
scalar OsgEarthNet.uav[50] utilizationCountManeuversMaintenance 62
scalar OsgEarthNet.uav[50] utilizationCountChargeState 31
scalar OsgEarthNet.uav[50] utilizationCountOverdrawnAfterMission 0
scalar OsgEarthNet.uav[50] utilizationCountIdleState 31
scalar OsgEarthNet.uav[50] utilizationFail 0
scalar OsgEarthNet.uav[50] simulationTime 259200
scalar OsgEarthNet.uav[51] utilizationSecMission 17766.655612612
scalar OsgEarthNet.uav[51] utilizationSecMaintenance 12291.339387388
scalar OsgEarthNet.uav[51] utilizationSecCharge 114620
scalar OsgEarthNet.uav[51] utilizationSecIdle 114522.004
scalar OsgEarthNet.uav[51] utilizationEnergyMission 85820.427112579
scalar OsgEarthNet.uav[51] utilizationEnergyMaintenance 58366.904786772
scalar OsgEarthNet.uav[51] utilizationEnergyCharge 140071.31030273
scalar OsgEarthNet.uav[51] utilizationEnergyOverdrawMission 0
scalar OsgEarthNet.uav[51] utilizationEnergyOverdrawMaintenance 0
scalar OsgEarthNet.uav[51] utilizationCountMissions 38
scalar OsgEarthNet.uav[51] utilizationCountManeuversMission 545
scalar OsgEarthNet.uav[51] utilizationCountManeuversMaintenance 76
scalar OsgEarthNet.uav[51] utilizationCountChargeState 37
scalar OsgEarthNet.uav[51] utilizationCountOverdrawnAfterMission 0
scalar OsgEarthNet.uav[51] utilizationCountIdleState 38
scalar OsgEarthNet.uav[51] utilizationFail 0
scalar OsgEarthNet.uav[51] simulationTime 259200
scalar OsgEarthNet.uav[52] utilizationSecMission 39934.219954022
scalar OsgEarthNet.uav[52] utilizationSecMaintenance 15854.1930923
scalar OsgEarthNet.uav[52] utilizationSecCharge 195809.91290209
scalar OsgEarthNet.uav[52] utilizationSecIdle 7601.6730515863
scalar OsgEarthNet.uav[52] utilizationEnergyMission 191607.9958992
scalar OsgEarthNet.uav[52] utilizationEnergyMaintenance 72313.637062073
scalar OsgEarthNet.uav[52] utilizationEnergyCharge 264718.06445312
scalar OsgEarthNet.uav[52] utilizationEnergyOverdrawMission 0
scalar OsgEarthNet.uav[52] utilizationEnergyOverdrawMaintenance 0
scalar OsgEarthNet.uav[52] utilizationCountMissions 57
scalar OsgEarthNet.uav[52] utilizationCountManeuversMission 1157
scalar OsgEarthNet.uav[52] utilizationCountManeuversMaintenance 114
scalar OsgEarthNet.uav[52] utilizationCountChargeState 57
scalar OsgEarthNet.uav[52] utilizationCountOverdrawnAfterMission 0
scalar OsgEarthNet.uav[52] utilizationCountIdleState 32
scalar OsgEarthNet.uav[52] utilizationFail 0
scalar OsgEarthNet.uav[52] simulationTime 259200
scalar OsgEarthNet.uav[53] utilizationSecMission 16948.126983544
scalar OsgEarthNet.uav[53] utilizationSecMaintenance 9834.1865239267
scalar OsgEarthNet.uav[53] utilizationSecCharge 98733.358128204
scalar OsgEarthNet.uav[53] utilizationSecIdle 133684.32736433
scalar OsgEarthNet.uav[53] utilizationEnergyMission 81412.532459259
scalar OsgEarthNet.uav[53] utilizationEnergyMaintenance 46877.867752075
scalar OsgEarthNet.uav[53] utilizationEnergyCharge 128728.88427734
scalar OsgEarthNet.uav[53] utilizationEnergyOverdrawMission 0
scalar OsgEarthNet.uav[53] utilizationEnergyOverdrawMaintenance 0
scalar OsgEarthNet.uav[53] utilizationCountMissions 28
scalar OsgEarthNet.uav[53] utilizationCountManeuversMission 509
scalar OsgEarthNet.uav[53] utilizationCountManeuversMaintenance 56
scalar OsgEarthNet.uav[53] utilizationCountChargeState 28
scalar OsgEarthNet.uav[53] utilizationCountOverdrawnAfterMission 0
scalar OsgEarthNet.uav[53] utilizationCountIdleState 28
scalar OsgEarthNet.uav[53] utilizationFail 0
scalar OsgEarthNet.uav[53] simulationTime 259200
scalar OsgEarthNet.uav[54] utilizationSecMission 21638.033338901
scalar OsgEarthNet.uav[54] utilizationSecMaintenance 13832.71159267
scalar OsgEarthNet.uav[54] utilizationSecCharge 133577.25256171
scalar OsgEarthNet.uav[54] utilizationSecIdle 90152.001506722
scalar OsgEarthNet.uav[54] utilizationEnergyMission 105847.63040161
scalar OsgEarthNet.uav[54] utilizationEnergyMaintenance 65381.970451355
scalar OsgEarthNet.uav[54] utilizationEnergyCharge 168845.18920898
scalar OsgEarthNet.uav[54] utilizationEnergyOverdrawMission 0
scalar OsgEarthNet.uav[54] utilizationEnergyOverdrawMaintenance 0
scalar OsgEarthNet.uav[54] utilizationCountMissions 41
scalar OsgEarthNet.uav[54] utilizationCountManeuversMission 696
scalar OsgEarthNet.uav[54] utilizationCountManeuversMaintenance 82
scalar OsgEarthNet.uav[54] utilizationCountChargeState 41
scalar OsgEarthNet.uav[54] utilizationCountOverdrawnAfterMission 0
scalar OsgEarthNet.uav[54] utilizationCountIdleState 41
scalar OsgEarthNet.uav[54] utilizationFail 0
scalar OsgEarthNet.uav[54] simulationTime 259200
scalar OsgEarthNet.uav[55] utilizationSecMission 39761.403937773
scalar OsgEarthNet.uav[55] utilizationSecMaintenance 16475.158184969
scalar OsgEarthNet.uav[55] utilizationSecCharge 195073.60006322
scalar OsgEarthNet.uav[55] utilizationSecIdle 7889.83681404
scalar OsgEarthNet.uav[55] utilizationEnergyMission 189390.20064926
scalar OsgEarthNet.uav[55] utilizationEnergyMaintenance 75891.425453186
scalar OsgEarthNet.uav[55] utilizationEnergyCharge 267046.83105469
scalar OsgEarthNet.uav[55] utilizationEnergyOverdrawMission 0
scalar OsgEarthNet.uav[55] utilizationEnergyOverdrawMaintenance 0
scalar OsgEarthNet.uav[55] utilizationCountMissions 58
scalar OsgEarthNet.uav[55] utilizationCountManeuversMission 1240
scalar OsgEarthNet.uav[55] utilizationCountManeuversMaintenance 116
scalar OsgEarthNet.uav[55] utilizationCountChargeState 58
scalar OsgEarthNet.uav[55] utilizationCountOverdrawnAfterMission 0
scalar OsgEarthNet.uav[55] utilizationCountIdleState 28
scalar OsgEarthNet.uav[55] utilizationFail 0
scalar OsgEarthNet.uav[55] simulationTime 259200
scalar OsgEarthNet.uav[56] utilizationSecMission 14745.001220642
scalar OsgEarthNet.uav[56] utilizationSecMaintenance 10395.860352529
scalar OsgEarthNet.uav[56] utilizationSecCharge 95660
scalar OsgEarthNet.uav[56] utilizationSecIdle 138399.13742683
scalar OsgEarthNet.uav[56] utilizationEnergyMission 71397.446041107
scalar OsgEarthNet.uav[56] utilizationEnergyMaintenance 49107.65732193
scalar OsgEarthNet.uav[56] utilizationEnergyCharge 123442.20068359
scalar OsgEarthNet.uav[56] utilizationEnergyOverdrawMission 0
scalar OsgEarthNet.uav[56] utilizationEnergyOverdrawMaintenance 0
scalar OsgEarthNet.uav[56] utilizationCountMissions 27
scalar OsgEarthNet.uav[56] utilizationCountManeuversMission 529
scalar OsgEarthNet.uav[56] utilizationCountManeuversMaintenance 54
scalar OsgEarthNet.uav[56] utilizationCountChargeState 27
scalar OsgEarthNet.uav[56] utilizationCountOverdrawnAfterMission 0
scalar OsgEarthNet.uav[56] utilizationCountIdleState 28
scalar OsgEarthNet.uav[56] utilizationFail 0
scalar OsgEarthNet.uav[56] simulationTime 259200
scalar OsgEarthNet.uav[57] utilizationSecMission 25860.36050223
scalar OsgEarthNet.uav[57] utilizationSecMaintenance 14346.914031311
scalar OsgEarthNet.uav[57] utilizationSecCharge 147430
scalar OsgEarthNet.uav[57] utilizationSecIdle 71562.724466459
scalar OsgEarthNet.uav[57] utilizationEnergyMission 124585.74241257
scalar OsgEarthNet.uav[57] utilizationEnergyMaintenance 68101.922354152
scalar OsgEarthNet.uav[57] utilizationEnergyCharge 190028.03686523
scalar OsgEarthNet.uav[57] utilizationEnergyOverdrawMission 0
scalar OsgEarthNet.uav[57] utilizationEnergyOverdrawMaintenance 0
scalar OsgEarthNet.uav[57] utilizationCountMissions 45
scalar OsgEarthNet.uav[57] utilizationCountManeuversMission 826
scalar OsgEarthNet.uav[57] utilizationCountManeuversMaintenance 90
scalar OsgEarthNet.uav[57] utilizationCountChargeState 44
scalar OsgEarthNet.uav[57] utilizationCountOverdrawnAfterMission 0
scalar OsgEarthNet.uav[57] utilizationCountIdleState 35
scalar OsgEarthNet.uav[57] utilizationFail 0
scalar OsgEarthNet.uav[57] simulationTime 259200
scalar OsgEarthNet.uav[58] utilizationSecMission 39539.235550602
scalar OsgEarthNet.uav[58] utilizationSecMaintenance 16277.529031734
scalar OsgEarthNet.uav[58] utilizationSecCharge 192923.603337
scalar OsgEarthNet.uav[58] utilizationSecIdle 10459.631080665
scalar OsgEarthNet.uav[58] utilizationEnergyMission 188262.68328476
scalar OsgEarthNet.uav[58] utilizationEnergyMaintenance 75118.693553925
scalar OsgEarthNet.uav[58] utilizationEnergyCharge 263484.49072266
scalar OsgEarthNet.uav[58] utilizationEnergyOverdrawMission 0
scalar OsgEarthNet.uav[58] utilizationEnergyOverdrawMaintenance 0
scalar OsgEarthNet.uav[58] utilizationCountMissions 57
scalar OsgEarthNet.uav[58] utilizationCountManeuversMission 1121
scalar OsgEarthNet.uav[58] utilizationCountManeuversMaintenance 114
scalar OsgEarthNet.uav[58] utilizationCountChargeState 57
scalar OsgEarthNet.uav[58] utilizationCountOverdrawnAfterMission 0
scalar OsgEarthNet.uav[58] utilizationCountIdleState 31
scalar OsgEarthNet.uav[58] utilizationFail 0
scalar OsgEarthNet.uav[58] simulationTime 259200
scalar OsgEarthNet.uav[59] utilizationSecMission 40393.204557586
scalar OsgEarthNet.uav[59] utilizationSecMaintenance 16632.196278368
scalar OsgEarthNet.uav[59] utilizationSecCharge 196690
scalar OsgEarthNet.uav[59] utilizationSecIdle 5484.5981640461
scalar OsgEarthNet.uav[59] utilizationEnergyMission 192735.0727272
scalar OsgEarthNet.uav[59] utilizationEnergyMaintenance 75761.672855377
scalar OsgEarthNet.uav[59] utilizationEnergyCharge 268631.27978516
scalar OsgEarthNet.uav[59] utilizationEnergyOverdrawMission 0
scalar OsgEarthNet.uav[59] utilizationEnergyOverdrawMaintenance 0
scalar OsgEarthNet.uav[59] utilizationCountMissions 58
scalar OsgEarthNet.uav[59] utilizationCountManeuversMission 1121
scalar OsgEarthNet.uav[59] utilizationCountManeuversMaintenance 115
scalar OsgEarthNet.uav[59] utilizationCountChargeState 58
scalar OsgEarthNet.uav[59] utilizationCountOverdrawnAfterMission 0
scalar OsgEarthNet.uav[59] utilizationCountIdleState 26
scalar OsgEarthNet.uav[59] utilizationFail 0
scalar OsgEarthNet.uav[59] simulationTime 259200
scalar OsgEarthNet.uav[60] utilizationSecMission 40312.502923866
scalar OsgEarthNet.uav[60] utilizationSecMaintenance 16361.456044532
scalar OsgEarthNet.uav[60] utilizationSecCharge 195730.0184204
scalar OsgEarthNet.uav[60] utilizationSecIdle 6796.0216111988
scalar OsgEarthNet.uav[60] utilizationEnergyMission 195187.32892227
scalar OsgEarthNet.uav[60] utilizationEnergyMaintenance 74043.548984528
scalar OsgEarthNet.uav[60] utilizationEnergyCharge 265948.14428711
scalar OsgEarthNet.uav[60] utilizationEnergyOverdrawMission 0
scalar OsgEarthNet.uav[60] utilizationEnergyOverdrawMaintenance 0
scalar OsgEarthNet.uav[60] utilizationCountMissions 58
scalar OsgEarthNet.uav[60] utilizationCountManeuversMission 1142
scalar OsgEarthNet.uav[60] utilizationCountManeuversMaintenance 116
scalar OsgEarthNet.uav[60] utilizationCountChargeState 58
scalar OsgEarthNet.uav[60] utilizationCountOverdrawnAfterMission 0
scalar OsgEarthNet.uav[60] utilizationCountIdleState 24
scalar OsgEarthNet.uav[60] utilizationFail 0
scalar OsgEarthNet.uav[60] simulationTime 259200
scalar OsgEarthNet.uav[61] utilizationSecMission 21836.201177494
scalar OsgEarthNet.uav[61] utilizationSecMaintenance 15160.804724083
scalar OsgEarthNet.uav[61] utilizationSecCharge 141860.99309842
scalar OsgEarthNet.uav[61] utilizationSecIdle 80342
scalar OsgEarthNet.uav[61] utilizationEnergyMission 107722.68871307
scalar OsgEarthNet.uav[61] utilizationEnergyMaintenance 73276.555538177
scalar OsgEarthNet.uav[61] utilizationEnergyCharge 176432.37115479
scalar OsgEarthNet.uav[61] utilizationEnergyOverdrawMission 0
scalar OsgEarthNet.uav[61] utilizationEnergyOverdrawMaintenance 0
scalar OsgEarthNet.uav[61] utilizationCountMissions 45
scalar OsgEarthNet.uav[61] utilizationCountManeuversMission 734
scalar OsgEarthNet.uav[61] utilizationCountManeuversMaintenance 90
scalar OsgEarthNet.uav[61] utilizationCountChargeState 45
scalar OsgEarthNet.uav[61] utilizationCountOverdrawnAfterMission 0
scalar OsgEarthNet.uav[61] utilizationCountIdleState 45
scalar OsgEarthNet.uav[61] utilizationFail 0
scalar OsgEarthNet.uav[61] simulationTime 259200
scalar OsgEarthNet.uav[62] utilizationSecMission 39668.418945998
scalar OsgEarthNet.uav[62] utilizationSecMaintenance 16719.580054002
scalar OsgEarthNet.uav[62] utilizationSecCharge 198140
scalar OsgEarthNet.uav[62] utilizationSecIdle 4672
scalar OsgEarthNet.uav[62] utilizationEnergyMission 190705.89614085
scalar OsgEarthNet.uav[62] utilizationEnergyMaintenance 78647.080223084
scalar OsgEarthNet.uav[62] utilizationEnergyCharge 267622.27539062
scalar OsgEarthNet.uav[62] utilizationEnergyOverdrawMission 0
scalar OsgEarthNet.uav[62] utilizationEnergyOverdrawMaintenance 0
scalar OsgEarthNet.uav[62] utilizationCountMissions 58
scalar OsgEarthNet.uav[62] utilizationCountManeuversMission 1163
scalar OsgEarthNet.uav[62] utilizationCountManeuversMaintenance 117
scalar OsgEarthNet.uav[62] utilizationCountChargeState 58
scalar OsgEarthNet.uav[62] utilizationCountOverdrawnAfterMission 0
scalar OsgEarthNet.uav[62] utilizationCountIdleState 26
scalar OsgEarthNet.uav[62] utilizationFail 0
scalar OsgEarthNet.uav[62] simulationTime 259200
scalar OsgEarthNet.uav[63] utilizationSecMission 16887.392755884
scalar OsgEarthNet.uav[63] utilizationSecMaintenance 10636.53790051
scalar OsgEarthNet.uav[63] utilizationSecCharge 102840
scalar OsgEarthNet.uav[63] utilizationSecIdle 128836.06834361
scalar OsgEarthNet.uav[63] utilizationEnergyMission 80952.142726898
scalar OsgEarthNet.uav[63] utilizationEnergyMaintenance 50886.18139267
scalar OsgEarthNet.uav[63] utilizationEnergyCharge 132837.30371094
scalar OsgEarthNet.uav[63] utilizationEnergyOverdrawMission 0
scalar OsgEarthNet.uav[63] utilizationEnergyOverdrawMaintenance 0
scalar OsgEarthNet.uav[63] utilizationCountMissions 29
scalar OsgEarthNet.uav[63] utilizationCountManeuversMission 549
scalar OsgEarthNet.uav[63] utilizationCountManeuversMaintenance 58
scalar OsgEarthNet.uav[63] utilizationCountChargeState 29
scalar OsgEarthNet.uav[63] utilizationCountOverdrawnAfterMission 0
scalar OsgEarthNet.uav[63] utilizationCountIdleState 30
scalar OsgEarthNet.uav[63] utilizationFail 0
scalar OsgEarthNet.uav[63] simulationTime 259200
scalar OsgEarthNet.uav[64] utilizationSecMission 20106.160342103
scalar OsgEarthNet.uav[64] utilizationSecMaintenance 14094.101691903
scalar OsgEarthNet.uav[64] utilizationSecCharge 134140
scalar OsgEarthNet.uav[64] utilizationSecIdle 90859.736965995
scalar OsgEarthNet.uav[64] utilizationEnergyMission 97384.2368927
scalar OsgEarthNet.uav[64] utilizationEnergyMaintenance 66748.9740448
scalar OsgEarthNet.uav[64] utilizationEnergyCharge 162664.59301758
scalar OsgEarthNet.uav[64] utilizationEnergyOverdrawMission 0
scalar OsgEarthNet.uav[64] utilizationEnergyOverdrawMaintenance 0
scalar OsgEarthNet.uav[64] utilizationCountMissions 44
scalar OsgEarthNet.uav[64] utilizationCountManeuversMission 587
scalar OsgEarthNet.uav[64] utilizationCountManeuversMaintenance 88
scalar OsgEarthNet.uav[64] utilizationCountChargeState 44
scalar OsgEarthNet.uav[64] utilizationCountOverdrawnAfterMission 0
scalar OsgEarthNet.uav[64] utilizationCountIdleState 45
scalar OsgEarthNet.uav[64] utilizationFail 0
scalar OsgEarthNet.uav[64] simulationTime 259200
scalar OsgEarthNet.uav[65] utilizationSecMission 39867.17166054
scalar OsgEarthNet.uav[65] utilizationSecMaintenance 17251.187142686
scalar OsgEarthNet.uav[65] utilizationSecCharge 198129.64019677
scalar OsgEarthNet.uav[65] utilizationSecIdle 3952
[...]
scalar OsgEarthNet.uav[81] utilizationEnergyOverdrawMaintenance 0
scalar OsgEarthNet.uav[81] utilizationCountMissions 44
scalar OsgEarthNet.uav[81] utilizationCountManeuversMission 740
scalar OsgEarthNet.uav[81] utilizationCountManeuversMaintenance 88
scalar OsgEarthNet.uav[81] utilizationCountChargeState 44
scalar OsgEarthNet.uav[81] utilizationCountOverdrawnAfterMission 0
scalar OsgEarthNet.uav[81] utilizationCountIdleState 45
scalar OsgEarthNet.uav[81] utilizationFail 0
scalar OsgEarthNet.uav[81] simulationTime 259200
scalar OsgEarthNet.uav[82] utilizationSecMission 39447.968115757
scalar OsgEarthNet.uav[82] utilizationSecMaintenance 17866.043193006
scalar OsgEarthNet.uav[82] utilizationSecCharge 196206.81258083
scalar OsgEarthNet.uav[82] utilizationSecIdle 5679.1751104107
scalar OsgEarthNet.uav[82] utilizationEnergyMission 190328.66012955
scalar OsgEarthNet.uav[82] utilizationEnergyMaintenance 83389.30714798
scalar OsgEarthNet.uav[82] utilizationEnergyCharge 267623.21353149
scalar OsgEarthNet.uav[82] utilizationEnergyOverdrawMission 0
scalar OsgEarthNet.uav[82] utilizationEnergyOverdrawMaintenance 0
scalar OsgEarthNet.uav[82] utilizationCountMissions 59
scalar OsgEarthNet.uav[82] utilizationCountManeuversMission 1203
scalar OsgEarthNet.uav[82] utilizationCountManeuversMaintenance 118
scalar OsgEarthNet.uav[82] utilizationCountChargeState 59
scalar OsgEarthNet.uav[82] utilizationCountOverdrawnAfterMission 0
scalar OsgEarthNet.uav[82] utilizationCountIdleState 27
scalar OsgEarthNet.uav[82] utilizationFail 0
scalar OsgEarthNet.uav[82] simulationTime 259200
scalar OsgEarthNet.uav[83] utilizationSecMission 20201.308227951
scalar OsgEarthNet.uav[83] utilizationSecMaintenance 13846.689772049
scalar OsgEarthNet.uav[83] utilizationSecCharge 126420
scalar OsgEarthNet.uav[83] utilizationSecIdle 98732.001
scalar OsgEarthNet.uav[83] utilizationEnergyMission 99145.313975705
scalar OsgEarthNet.uav[83] utilizationEnergyMaintenance 65614.767532348
scalar OsgEarthNet.uav[83] utilizationEnergyCharge 162497.51611328
scalar OsgEarthNet.uav[83] utilizationEnergyOverdrawMission 0
scalar OsgEarthNet.uav[83] utilizationEnergyOverdrawMaintenance 0
scalar OsgEarthNet.uav[83] utilizationCountMissions 36
scalar OsgEarthNet.uav[83] utilizationCountManeuversMission 715
scalar OsgEarthNet.uav[83] utilizationCountManeuversMaintenance 73
scalar OsgEarthNet.uav[83] utilizationCountChargeState 36
scalar OsgEarthNet.uav[83] utilizationCountOverdrawnAfterMission 0
scalar OsgEarthNet.uav[83] utilizationCountIdleState 37
scalar OsgEarthNet.uav[83] utilizationFail 0
scalar OsgEarthNet.uav[83] simulationTime 259200
scalar OsgEarthNet.uav[84] utilizationSecMission 37472.845519467
scalar OsgEarthNet.uav[84] utilizationSecMaintenance 16225.286080635
scalar OsgEarthNet.uav[84] utilizationSecCharge 191393.51379702
scalar OsgEarthNet.uav[84] utilizationSecIdle 14108.353602879
scalar OsgEarthNet.uav[84] utilizationEnergyMission 179310.02557755
scalar OsgEarthNet.uav[84] utilizationEnergyMaintenance 76341.613658905
scalar OsgEarthNet.uav[84] utilizationEnergyCharge 258479.96582031
scalar OsgEarthNet.uav[84] utilizationEnergyOverdrawMission 0
scalar OsgEarthNet.uav[84] utilizationEnergyOverdrawMaintenance 0
scalar OsgEarthNet.uav[84] utilizationCountMissions 56
scalar OsgEarthNet.uav[84] utilizationCountManeuversMission 1105
scalar OsgEarthNet.uav[84] utilizationCountManeuversMaintenance 112
scalar OsgEarthNet.uav[84] utilizationCountChargeState 56
scalar OsgEarthNet.uav[84] utilizationCountOverdrawnAfterMission 0
scalar OsgEarthNet.uav[84] utilizationCountIdleState 32
scalar OsgEarthNet.uav[84] utilizationFail 0
scalar OsgEarthNet.uav[84] simulationTime 259200
scalar OsgEarthNet.uav[85] utilizationSecMission 40225.830552337
scalar OsgEarthNet.uav[85] utilizationSecMaintenance 16438.382710925
scalar OsgEarthNet.uav[85] utilizationSecCharge 196114.33277802
scalar OsgEarthNet.uav[85] utilizationSecIdle 6421.4529587171
scalar OsgEarthNet.uav[85] utilizationEnergyMission 193447.04128265
scalar OsgEarthNet.uav[85] utilizationEnergyMaintenance 74916.199691772
scalar OsgEarthNet.uav[85] utilizationEnergyCharge 266714.8684082
scalar OsgEarthNet.uav[85] utilizationEnergyOverdrawMission 0
scalar OsgEarthNet.uav[85] utilizationEnergyOverdrawMaintenance 0
scalar OsgEarthNet.uav[85] utilizationCountMissions 58
scalar OsgEarthNet.uav[85] utilizationCountManeuversMission 1097
scalar OsgEarthNet.uav[85] utilizationCountManeuversMaintenance 116
scalar OsgEarthNet.uav[85] utilizationCountChargeState 58
scalar OsgEarthNet.uav[85] utilizationCountOverdrawnAfterMission 0
scalar OsgEarthNet.uav[85] utilizationCountIdleState 28
scalar OsgEarthNet.uav[85] utilizationFail 0
scalar OsgEarthNet.uav[85] simulationTime 259200
scalar OsgEarthNet.uav[86] utilizationSecMission 19050.002441285
scalar OsgEarthNet.uav[86] utilizationSecMaintenance 10763.194380004
scalar OsgEarthNet.uav[86] utilizationSecCharge 110590
scalar OsgEarthNet.uav[86] utilizationSecIdle 118796.80217871
scalar OsgEarthNet.uav[86] utilizationEnergyMission 92148.587295532
scalar OsgEarthNet.uav[86] utilizationEnergyMaintenance 51333.245197296
scalar OsgEarthNet.uav[86] utilizationEnergyCharge 143277.63623047
scalar OsgEarthNet.uav[86] utilizationEnergyOverdrawMission 0
scalar OsgEarthNet.uav[86] utilizationEnergyOverdrawMaintenance 0
scalar OsgEarthNet.uav[86] utilizationCountMissions 31
scalar OsgEarthNet.uav[86] utilizationCountManeuversMission 536
scalar OsgEarthNet.uav[86] utilizationCountManeuversMaintenance 62
scalar OsgEarthNet.uav[86] utilizationCountChargeState 31
scalar OsgEarthNet.uav[86] utilizationCountOverdrawnAfterMission 0
scalar OsgEarthNet.uav[86] utilizationCountIdleState 32
scalar OsgEarthNet.uav[86] utilizationFail 0
scalar OsgEarthNet.uav[86] simulationTime 259200
scalar OsgEarthNet.uav[87] utilizationSecMission 20395.994377632
scalar OsgEarthNet.uav[87] utilizationSecMaintenance 13532.133063944
scalar OsgEarthNet.uav[87] utilizationSecCharge 131460
scalar OsgEarthNet.uav[87] utilizationSecIdle 93811.871558424
scalar OsgEarthNet.uav[87] utilizationEnergyMission 101479.44602966
scalar OsgEarthNet.uav[87] utilizationEnergyMaintenance 64962.950084686
scalar OsgEarthNet.uav[87] utilizationEnergyCharge 164733.82885742
scalar OsgEarthNet.uav[87] utilizationEnergyOverdrawMission 0
scalar OsgEarthNet.uav[87] utilizationEnergyOverdrawMaintenance 0
scalar OsgEarthNet.uav[87] utilizationCountMissions 40
scalar OsgEarthNet.uav[87] utilizationCountManeuversMission 685
scalar OsgEarthNet.uav[87] utilizationCountManeuversMaintenance 80
scalar OsgEarthNet.uav[87] utilizationCountChargeState 40
scalar OsgEarthNet.uav[87] utilizationCountOverdrawnAfterMission 0
scalar OsgEarthNet.uav[87] utilizationCountIdleState 41
scalar OsgEarthNet.uav[87] utilizationFail 0
scalar OsgEarthNet.uav[87] simulationTime 259200
scalar OsgEarthNet.uav[88] utilizationSecMission 40019.744122633
scalar OsgEarthNet.uav[88] utilizationSecMaintenance 16546.319863473
scalar OsgEarthNet.uav[88] utilizationSecCharge 195473.2269568
scalar OsgEarthNet.uav[88] utilizationSecIdle 7160.7080570899
scalar OsgEarthNet.uav[88] utilizationEnergyMission 190579.88771057
scalar OsgEarthNet.uav[88] utilizationEnergyMaintenance 76546.890892029
scalar OsgEarthNet.uav[88] utilizationEnergyCharge 265551.18835449
scalar OsgEarthNet.uav[88] utilizationEnergyOverdrawMission 0
scalar OsgEarthNet.uav[88] utilizationEnergyOverdrawMaintenance 0
scalar OsgEarthNet.uav[88] utilizationCountMissions 58
scalar OsgEarthNet.uav[88] utilizationCountManeuversMission 1116
scalar OsgEarthNet.uav[88] utilizationCountManeuversMaintenance 116
scalar OsgEarthNet.uav[88] utilizationCountChargeState 58
scalar OsgEarthNet.uav[88] utilizationCountOverdrawnAfterMission 0
scalar OsgEarthNet.uav[88] utilizationCountIdleState 26
scalar OsgEarthNet.uav[88] utilizationFail 0
scalar OsgEarthNet.uav[88] simulationTime 259200
scalar OsgEarthNet.uav[89] utilizationSecMission 20828.861211203
scalar OsgEarthNet.uav[89] utilizationSecMaintenance 12971.333304813
scalar OsgEarthNet.uav[89] utilizationSecCharge 126440
scalar OsgEarthNet.uav[89] utilizationSecIdle 98959.804483984
scalar OsgEarthNet.uav[89] utilizationEnergyMission 102183.25343323
scalar OsgEarthNet.uav[89] utilizationEnergyMaintenance 61686.792251587
scalar OsgEarthNet.uav[89] utilizationEnergyCharge 162966.90380859
scalar OsgEarthNet.uav[89] utilizationEnergyOverdrawMission 0
scalar OsgEarthNet.uav[89] utilizationEnergyOverdrawMaintenance 0
scalar OsgEarthNet.uav[89] utilizationCountMissions 36
scalar OsgEarthNet.uav[89] utilizationCountManeuversMission 660
scalar OsgEarthNet.uav[89] utilizationCountManeuversMaintenance 72
scalar OsgEarthNet.uav[89] utilizationCountChargeState 36
scalar OsgEarthNet.uav[89] utilizationCountOverdrawnAfterMission 0
scalar OsgEarthNet.uav[89] utilizationCountIdleState 37
scalar OsgEarthNet.uav[89] utilizationFail 0
scalar OsgEarthNet.uav[89] simulationTime 259200
scalar OsgEarthNet.uav[90] utilizationSecMission 19027.501830963
scalar OsgEarthNet.uav[90] utilizationSecMaintenance 12238.203290712
scalar OsgEarthNet.uav[90] utilizationSecCharge 116770
scalar OsgEarthNet.uav[90] utilizationSecIdle 111164.29387833
scalar OsgEarthNet.uav[90] utilizationEnergyMission 93457.635692596
scalar OsgEarthNet.uav[90] utilizationEnergyMaintenance 58241.281108856
scalar OsgEarthNet.uav[90] utilizationEnergyCharge 150656.71191406
scalar OsgEarthNet.uav[90] utilizationEnergyOverdrawMission 0
scalar OsgEarthNet.uav[90] utilizationEnergyOverdrawMaintenance 0
scalar OsgEarthNet.uav[90] utilizationCountMissions 33
scalar OsgEarthNet.uav[90] utilizationCountManeuversMission 639
scalar OsgEarthNet.uav[90] utilizationCountManeuversMaintenance 66
scalar OsgEarthNet.uav[90] utilizationCountChargeState 33
scalar OsgEarthNet.uav[90] utilizationCountOverdrawnAfterMission 0
scalar OsgEarthNet.uav[90] utilizationCountIdleState 34
scalar OsgEarthNet.uav[90] utilizationFail 0
scalar OsgEarthNet.uav[90] simulationTime 259200
scalar OsgEarthNet.uav[91] utilizationSecMission 22653.046546128
scalar OsgEarthNet.uav[91] utilizationSecMaintenance 15606.240306091
scalar OsgEarthNet.uav[91] utilizationSecCharge 146618.70314778
scalar OsgEarthNet.uav[91] utilizationSecIdle 74322.009
scalar OsgEarthNet.uav[91] utilizationEnergyMission 111194.41743469
scalar OsgEarthNet.uav[91] utilizationEnergyMaintenance 73830.125606537
scalar OsgEarthNet.uav[91] utilizationEnergyCharge 184702.04541016
scalar OsgEarthNet.uav[91] utilizationEnergyOverdrawMission 0
scalar OsgEarthNet.uav[91] utilizationEnergyOverdrawMaintenance 0
scalar OsgEarthNet.uav[91] utilizationCountMissions 45
scalar OsgEarthNet.uav[91] utilizationCountManeuversMission 820
scalar OsgEarthNet.uav[91] utilizationCountManeuversMaintenance 90
scalar OsgEarthNet.uav[91] utilizationCountChargeState 45
scalar OsgEarthNet.uav[91] utilizationCountOverdrawnAfterMission 0
scalar OsgEarthNet.uav[91] utilizationCountIdleState 45
scalar OsgEarthNet.uav[91] utilizationFail 0
scalar OsgEarthNet.uav[91] simulationTime 259200
scalar OsgEarthNet.uav[92] utilizationSecMission 40174.089141244
scalar OsgEarthNet.uav[92] utilizationSecMaintenance 16243.907858756
scalar OsgEarthNet.uav[92] utilizationSecCharge 197330
scalar OsgEarthNet.uav[92] utilizationSecIdle 5452.002
scalar OsgEarthNet.uav[92] utilizationEnergyMission 194269.34078937
scalar OsgEarthNet.uav[92] utilizationEnergyMaintenance 74448.658332825
scalar OsgEarthNet.uav[92] utilizationEnergyCharge 267687.88769531
scalar OsgEarthNet.uav[92] utilizationEnergyOverdrawMission 0
scalar OsgEarthNet.uav[92] utilizationEnergyOverdrawMaintenance 0
scalar OsgEarthNet.uav[92] utilizationCountMissions 58
scalar OsgEarthNet.uav[92] utilizationCountManeuversMission 1273
scalar OsgEarthNet.uav[92] utilizationCountManeuversMaintenance 117
scalar OsgEarthNet.uav[92] utilizationCountChargeState 58
scalar OsgEarthNet.uav[92] utilizationCountOverdrawnAfterMission 0
scalar OsgEarthNet.uav[92] utilizationCountIdleState 30
scalar OsgEarthNet.uav[92] utilizationFail 0
scalar OsgEarthNet.uav[92] simulationTime 259200
scalar OsgEarthNet.uav[93] utilizationSecMission 21290.627593865
scalar OsgEarthNet.uav[93] utilizationSecMaintenance 12036.59386699
scalar OsgEarthNet.uav[93] utilizationSecCharge 121579.70248524
scalar OsgEarthNet.uav[93] utilizationSecIdle 104293.0750539
scalar OsgEarthNet.uav[93] utilizationEnergyMission 100215.66332245
scalar OsgEarthNet.uav[93] utilizationEnergyMaintenance 56821.605716705
scalar OsgEarthNet.uav[93] utilizationEnergyCharge 157569.08349609
scalar OsgEarthNet.uav[93] utilizationEnergyOverdrawMission 0
scalar OsgEarthNet.uav[93] utilizationEnergyOverdrawMaintenance 0
scalar OsgEarthNet.uav[93] utilizationCountMissions 35
scalar OsgEarthNet.uav[93] utilizationCountManeuversMission 622
scalar OsgEarthNet.uav[93] utilizationCountManeuversMaintenance 70
scalar OsgEarthNet.uav[93] utilizationCountChargeState 35
scalar OsgEarthNet.uav[93] utilizationCountOverdrawnAfterMission 0
scalar OsgEarthNet.uav[93] utilizationCountIdleState 35
scalar OsgEarthNet.uav[93] utilizationFail 0
scalar OsgEarthNet.uav[93] simulationTime 259200
scalar OsgEarthNet.uav[94] utilizationSecMission 22221.217544025
scalar OsgEarthNet.uav[94] utilizationSecMaintenance 14308.66737231
scalar OsgEarthNet.uav[94] utilizationSecCharge 138050
scalar OsgEarthNet.uav[94] utilizationSecIdle 84620.114083665
scalar OsgEarthNet.uav[94] utilizationEnergyMission 106829.85400705
scalar OsgEarthNet.uav[94] utilizationEnergyMaintenance 68280.59135437
scalar OsgEarthNet.uav[94] utilizationEnergyCharge 171419.44702148
scalar OsgEarthNet.uav[94] utilizationEnergyOverdrawMission 0
scalar OsgEarthNet.uav[94] utilizationEnergyOverdrawMaintenance 0
scalar OsgEarthNet.uav[94] utilizationCountMissions 43
scalar OsgEarthNet.uav[94] utilizationCountManeuversMission 674
scalar OsgEarthNet.uav[94] utilizationCountManeuversMaintenance 87
scalar OsgEarthNet.uav[94] utilizationCountChargeState 43
scalar OsgEarthNet.uav[94] utilizationCountOverdrawnAfterMission 0
scalar OsgEarthNet.uav[94] utilizationCountIdleState 44
scalar OsgEarthNet.uav[94] utilizationFail 0
scalar OsgEarthNet.uav[94] simulationTime 259200
scalar OsgEarthNet.uav[95] utilizationSecMission 40107.740998227
scalar OsgEarthNet.uav[95] utilizationSecMaintenance 16614.647481604
scalar OsgEarthNet.uav[95] utilizationSecCharge 196215.60652017
scalar OsgEarthNet.uav[95] utilizationSecIdle 6262.004
scalar OsgEarthNet.uav[95] utilizationEnergyMission 192799.2396965
scalar OsgEarthNet.uav[95] utilizationEnergyMaintenance 76828.561332703
scalar OsgEarthNet.uav[95] utilizationEnergyCharge 267990.61791992
scalar OsgEarthNet.uav[95] utilizationEnergyOverdrawMission 0
scalar OsgEarthNet.uav[95] utilizationEnergyOverdrawMaintenance 0
scalar OsgEarthNet.uav[95] utilizationCountMissions 58
scalar OsgEarthNet.uav[95] utilizationCountManeuversMission 1126
scalar OsgEarthNet.uav[95] utilizationCountManeuversMaintenance 116
scalar OsgEarthNet.uav[95] utilizationCountChargeState 58
scalar OsgEarthNet.uav[95] utilizationCountOverdrawnAfterMission 0
scalar OsgEarthNet.uav[95] utilizationCountIdleState 24
scalar OsgEarthNet.uav[95] utilizationFail 0
scalar OsgEarthNet.uav[95] simulationTime 259200
scalar OsgEarthNet.uav[96] utilizationSecMission 22611.252746445
scalar OsgEarthNet.uav[96] utilizationSecMaintenance 12496.744253555
scalar OsgEarthNet.uav[96] utilizationSecCharge 127030
scalar OsgEarthNet.uav[96] utilizationSecIdle 97062.002
scalar OsgEarthNet.uav[96] utilizationEnergyMission 109182.41781616
scalar OsgEarthNet.uav[96] utilizationEnergyMaintenance 58823.453406089
scalar OsgEarthNet.uav[96] utilizationEnergyCharge 163438.56835938
scalar OsgEarthNet.uav[96] utilizationEnergyOverdrawMission 0
scalar OsgEarthNet.uav[96] utilizationEnergyOverdrawMaintenance 0
scalar OsgEarthNet.uav[96] utilizationCountMissions 37
scalar OsgEarthNet.uav[96] utilizationCountManeuversMission 662
scalar OsgEarthNet.uav[96] utilizationCountManeuversMaintenance 74
scalar OsgEarthNet.uav[96] utilizationCountChargeState 36
scalar OsgEarthNet.uav[96] utilizationCountOverdrawnAfterMission 0
scalar OsgEarthNet.uav[96] utilizationCountIdleState 37
scalar OsgEarthNet.uav[96] utilizationFail 0
scalar OsgEarthNet.uav[96] simulationTime 259200
scalar OsgEarthNet.uav[97] utilizationSecMission 25463.428716321
scalar OsgEarthNet.uav[97] utilizationSecMaintenance 16121.679177618
scalar OsgEarthNet.uav[97] utilizationSecCharge 154412.89010606
scalar OsgEarthNet.uav[97] utilizationSecIdle 63202.001
scalar OsgEarthNet.uav[97] utilizationEnergyMission 124763.16257858
scalar OsgEarthNet.uav[97] utilizationEnergyMaintenance 76511.910957336
scalar OsgEarthNet.uav[97] utilizationEnergyCharge 197261.48303223
scalar OsgEarthNet.uav[97] utilizationEnergyOverdrawMission 0
scalar OsgEarthNet.uav[97] utilizationEnergyOverdrawMaintenance 0
scalar OsgEarthNet.uav[97] utilizationCountMissions 46
scalar OsgEarthNet.uav[97] utilizationCountManeuversMission 916
scalar OsgEarthNet.uav[97] utilizationCountManeuversMaintenance 92
scalar OsgEarthNet.uav[97] utilizationCountChargeState 46
scalar OsgEarthNet.uav[97] utilizationCountOverdrawnAfterMission 0
scalar OsgEarthNet.uav[97] utilizationCountIdleState 46
scalar OsgEarthNet.uav[97] utilizationFail 0
scalar OsgEarthNet.uav[97] simulationTime 259200
scalar OsgEarthNet.uav[98] utilizationSecMission 39315.483532156
scalar OsgEarthNet.uav[98] utilizationSecMaintenance 17422.514467844
scalar OsgEarthNet.uav[98] utilizationSecCharge 197820
scalar OsgEarthNet.uav[98] utilizationSecIdle 4642.001
scalar OsgEarthNet.uav[98] utilizationEnergyMission 189119.8895077
scalar OsgEarthNet.uav[98] utilizationEnergyMaintenance 78807.421554565
scalar OsgEarthNet.uav[98] utilizationEnergyCharge 268382.42871094
scalar OsgEarthNet.uav[98] utilizationEnergyOverdrawMission 0
scalar OsgEarthNet.uav[98] utilizationEnergyOverdrawMaintenance 0
scalar OsgEarthNet.uav[98] utilizationCountMissions 58
scalar OsgEarthNet.uav[98] utilizationCountManeuversMission 1164
scalar OsgEarthNet.uav[98] utilizationCountManeuversMaintenance 117
scalar OsgEarthNet.uav[98] utilizationCountChargeState 58
scalar OsgEarthNet.uav[98] utilizationCountOverdrawnAfterMission 0
scalar OsgEarthNet.uav[98] utilizationCountIdleState 23
scalar OsgEarthNet.uav[98] utilizationFail 0
scalar OsgEarthNet.uav[98] simulationTime 259200
scalar OsgEarthNet.uav[99] utilizationSecMission 17102.108172494
scalar OsgEarthNet.uav[99] utilizationSecMaintenance 12955.883827506
scalar OsgEarthNet.uav[99] utilizationSecCharge 112220
scalar OsgEarthNet.uav[99] utilizationSecIdle 116922.007
scalar OsgEarthNet.uav[99] utilizationEnergyMission 83943.041345558
scalar OsgEarthNet.uav[99] utilizationEnergyMaintenance 61272.893707275
scalar OsgEarthNet.uav[99] utilizationEnergyCharge 144478.02294922
scalar OsgEarthNet.uav[99] utilizationEnergyOverdrawMission 0
scalar OsgEarthNet.uav[99] utilizationEnergyOverdrawMaintenance 0
scalar OsgEarthNet.uav[99] utilizationCountMissions 32
scalar OsgEarthNet.uav[99] utilizationCountManeuversMission 663
scalar OsgEarthNet.uav[99] utilizationCountManeuversMaintenance 65
scalar OsgEarthNet.uav[99] utilizationCountChargeState 32
scalar OsgEarthNet.uav[99] utilizationCountOverdrawnAfterMission 0
scalar OsgEarthNet.uav[99] utilizationCountIdleState 33
scalar OsgEarthNet.uav[99] utilizationFail 0
scalar OsgEarthNet.uav[99] simulationTime 259200
scalar OsgEarthNet.cs[0] usedPower 4018736.4103135
scalar OsgEarthNet.cs[0] chargedPower 4018736.4103135
scalar OsgEarthNet.cs[0] chargedMobileNodes 876
scalar OsgEarthNet.cs[0] reservations 889
scalar OsgEarthNet.cs[1] usedPower 4127858.6339152
scalar OsgEarthNet.cs[1] chargedPower 4127858.6339152
scalar OsgEarthNet.cs[1] chargedMobileNodes 1026
scalar OsgEarthNet.cs[1] reservations 1040
scalar OsgEarthNet.cs[2] usedPower 8684372.8251178
scalar OsgEarthNet.cs[2] chargedPower 8684372.8251178
scalar OsgEarthNet.cs[2] chargedMobileNodes 833
scalar OsgEarthNet.cs[2] reservations 1895

