version 2
run Szenario_Hotel_Gabelbach-246-20180712-07:47:43-18312
attr configname Szenario_Hotel_Gabelbach
attr datetime 20180712-07:47:43
attr experiment Szenario_Hotel_Gabelbach
attr inifile omnetpp.ini
attr iterationvars "$replM=2, $biWeight=0.35, $replSearchM=1, $numUAVs=200"
attr iterationvarsf replM=2,biWeight=0.35,replSearchM=1,numUAVs=200-
attr measurement "$replM=2, $biWeight=0.35, $replSearchM=1, $numUAVs=200"
attr network OsgEarthNet
attr processid 18312
attr repetition 6
attr replication #6
attr resultdir results
attr runnumber 246
attr seedset 246
itervar biWeight 0.35
itervar numUAVs 200
itervar replM 2
itervar replSearchM 1
param *.osgEarthScene.scene "\"Szenario_Hotel_Gabelbach.earth\""
param *.playgroundLatitude 50.6830269
param *.playgroundLongitude 10.8538055
param *.playgroundWidth 3500m
param *.playgroundHeight 3500m
param *.cs[0].posX 3537m
param *.cs[0].posY 965m
param *.cs[0].posZ 538m
param *.cs[1].posX 312m
param *.cs[1].posY 1262m
param *.cs[1].posZ 539m
param *.cs[2].posX 2185m
param *.cs[2].posY 3026m
param *.cs[2].posZ 777m
param *.cs[3].posX 10m
param *.cs[3].posY 2200m
param *.cs[3].posZ 560m
param *.cs[4].posX 750m
param *.cs[4].posY 200m
param *.cs[4].posZ 540m
param *.cs[5].posX 2450m
param *.cs[5].posY 180m
param *.cs[5].posZ 524m
param *.cs[6].posX 3140m
param *.cs[6].posY 1790m
param *.cs[6].posZ 606m
param *.numCSs 3
param *.uav[*].replacementMethod 2
param *.uav[*].weightedSumWeight 0.35
param *.missionControl.replacementSearchMethod 1
param *.numUAVs 200
param *.numCSs 3
param *.numUAVs 100
param *.*.timeStep 10s
param *.uav[*].commandPreviewCommandCount 20
param *.missionControl.missionFiles "\"missions\\\\Szenario_WB_Hotel_Gabelbach_Mission_Hotel.waypoints,missions\\\\Szenario_WB_Hotel_Gabelbach_Mission_Kickelhahn.waypoints,missions\\\\Szenario_WB_Hotel_Gabelbach_Mission_Ilmenau_Sportplatz.waypoints,missions\\\\Szenario_WB_Hotel_Gabelbach_Mission_Manebach_Mitte.waypoints,missions\\\\Szenario_WB_Hotel_Gabelbach_Mission_Manebach_Sued.waypoints,missions\\\\Szenario_WB_Hotel_Gabelbach_Hover_HoheSchlaufe.waypoints,missions\\\\Szenario_WB_Hotel_Gabelbach_Hover_Kickelhahn.waypoints,missions\\\\Szenario_WB_Hotel_Gabelbach_Hover_Gabelbachskopf.waypoints,missions\\\\Szenario_WB_Hotel_Gabelbach_Hover_Dachskopf.waypoints\""
param *.uav[0].startX 3537m
param *.uav[0].startY 965m
param *.uav[0].startZ 539m
param *.uav[1].startX 312m
param *.uav[1].startY 1262m
param *.uav[1].startZ 540m
param *.uav[2].startX 2185m
param *.uav[2].startY 3026m
param *.uav[2].startZ 778m
param *.uav[3].startX 3537m
param *.uav[3].startY 965m
param *.uav[3].startZ 539m
param *.uav[4].startX 312m
param *.uav[4].startY 1262m
param *.uav[4].startZ 540m
param *.uav[5].startX 2185m
param *.uav[5].startY 3026m
param *.uav[5].startZ 778m
param *.uav[6].startX 3537m
param *.uav[6].startY 965m
param *.uav[6].startZ 539m
param *.uav[7].startX 312m
param *.uav[7].startY 1262m
param *.uav[7].startZ 540m
param *.uav[8].startX 2185m
param *.uav[8].startY 3026m
param *.uav[8].startZ 778m
param *.uav[9].startX 3537m
param *.uav[9].startY 965m
param *.uav[9].startZ 539m
param *.uav[10].startX 3537m
param *.uav[10].startY 965m
param *.uav[10].startZ 539m
param *.uav[11].startX 312m
param *.uav[11].startY 1262m
param *.uav[11].startZ 540m
param *.uav[12].startX 2185m
param *.uav[12].startY 3026m
param *.uav[12].startZ 778m
param *.uav[13].startX 3537m
param *.uav[13].startY 965m
param *.uav[13].startZ 539m
param *.uav[14].startX 312m
param *.uav[14].startY 1262m
param *.uav[14].startZ 540m
param *.uav[15].startX 2185m
param *.uav[15].startY 3026m
param *.uav[15].startZ 778m
param *.uav[16].startX 3537m
param *.uav[16].startY 965m
param *.uav[16].startZ 539m
param *.uav[17].startX 312m
param *.uav[17].startY 1262m
param *.uav[17].startZ 540m
param *.uav[18].startX 2185m
param *.uav[18].startY 3026m
param *.uav[18].startZ 778m
param *.uav[19].startX 3537m
param *.uav[19].startY 965m
param *.uav[19].startZ 539m
param *.uav[20].startX 3537m
param *.uav[20].startY 965m
param *.uav[20].startZ 539m
param *.uav[21].startX 312m
param *.uav[21].startY 1262m
param *.uav[21].startZ 540m
param *.uav[22].startX 2185m
param *.uav[22].startY 3026m
param *.uav[22].startZ 778m
param *.uav[23].startX 3537m
param *.uav[23].startY 965m
param *.uav[23].startZ 539m
param *.uav[24].startX 312m
param *.uav[24].startY 1262m
param *.uav[24].startZ 540m
param *.uav[25].startX 2185m
param *.uav[25].startY 3026m
param *.uav[25].startZ 778m
param *.uav[26].startX 3537m
param *.uav[26].startY 965m
param *.uav[26].startZ 539m
param *.uav[27].startX 312m
param *.uav[27].startY 1262m
param *.uav[27].startZ 540m
param *.uav[28].startX 2185m
param *.uav[28].startY 3026m
param *.uav[28].startZ 778m
param *.uav[29].startX 3537m
param *.uav[29].startY 965m
param *.uav[29].startZ 539m
param *.uav[30].startX 3537m
param *.uav[30].startY 965m
param *.uav[30].startZ 539m
param *.uav[31].startX 312m
param *.uav[31].startY 1262m
param *.uav[31].startZ 540m
param *.uav[32].startX 2185m
param *.uav[32].startY 3026m
param *.uav[32].startZ 778m
param *.uav[33].startX 3537m
param *.uav[33].startY 965m
param *.uav[33].startZ 539m
param *.uav[34].startX 312m
param *.uav[34].startY 1262m
param *.uav[34].startZ 540m
param *.uav[35].startX 2185m
param *.uav[35].startY 3026m
param *.uav[35].startZ 778m
param *.uav[36].startX 3537m
param *.uav[36].startY 965m
param *.uav[36].startZ 539m
param *.uav[37].startX 312m
param *.uav[37].startY 1262m
param *.uav[37].startZ 540m
param *.uav[38].startX 2185m
param *.uav[38].startY 3026m
param *.uav[38].startZ 778m
param *.uav[39].startX 3537m
param *.uav[39].startY 965m
param *.uav[39].startZ 539m
param *.uav[40].startX 3537m
param *.uav[40].startY 965m
param *.uav[40].startZ 539m
param *.uav[41].startX 312m
param *.uav[41].startY 1262m
param *.uav[41].startZ 540m
param *.uav[42].startX 2185m
param *.uav[42].startY 3026m
param *.uav[42].startZ 778m
param *.uav[43].startX 3537m
param *.uav[43].startY 965m
param *.uav[43].startZ 539m
param *.uav[44].startX 312m
param *.uav[44].startY 1262m
param *.uav[44].startZ 540m
param *.uav[45].startX 2185m
param *.uav[45].startY 3026m
param *.uav[45].startZ 778m
param *.uav[46].startX 3537m
param *.uav[46].startY 965m
param *.uav[46].startZ 539m
param *.uav[47].startX 312m
param *.uav[47].startY 1262m
param *.uav[47].startZ 540m
param *.uav[48].startX 2185m
param *.uav[48].startY 3026m
param *.uav[48].startZ 778m
param *.uav[49].startX 3537m
param *.uav[49].startY 965m
param *.uav[49].startZ 539m
param *.uav[50].startX 3537m
param *.uav[50].startY 965m
param *.uav[50].startZ 539m
param *.uav[51].startX 312m
param *.uav[51].startY 1262m
param *.uav[51].startZ 540m
param *.uav[52].startX 2185m
param *.uav[52].startY 3026m
param *.uav[52].startZ 778m
param *.uav[53].startX 3537m
param *.uav[53].startY 965m
param *.uav[53].startZ 539m
param *.uav[54].startX 312m
param *.uav[54].startY 1262m
param *.uav[54].startZ 540m
param *.uav[55].startX 2185m
param *.uav[55].startY 3026m
param *.uav[55].startZ 778m
param *.uav[56].startX 3537m
param *.uav[56].startY 965m
param *.uav[56].startZ 539m
param *.uav[57].startX 312m
param *.uav[57].startY 1262m
param *.uav[57].startZ 540m
param *.uav[58].startX 2185m
param *.uav[58].startY 3026m
param *.uav[58].startZ 778m
param *.uav[59].startX 3537m
param *.uav[59].startY 965m
param *.uav[59].startZ 539m
param *.uav[60].startX 3537m
param *.uav[60].startY 965m
param *.uav[60].startZ 539m
param *.uav[61].startX 312m
param *.uav[61].startY 1262m
param *.uav[61].startZ 540m
param *.uav[62].startX 2185m
param *.uav[62].startY 3026m
param *.uav[62].startZ 778m
param *.uav[63].startX 3537m
param *.uav[63].startY 965m
param *.uav[63].startZ 539m
param *.uav[64].startX 312m
param *.uav[64].startY 1262m
param *.uav[64].startZ 540m
param *.uav[65].startX 2185m
param *.uav[65].startY 3026m
param *.uav[65].startZ 778m
param *.uav[66].startX 3537m
param *.uav[66].startY 965m
param *.uav[66].startZ 539m
param *.uav[67].startX 312m
param *.uav[67].startY 1262m
param *.uav[67].startZ 540m
param *.uav[68].startX 2185m
param *.uav[68].startY 3026m
param *.uav[68].startZ 778m
param *.uav[69].startX 3537m
param *.uav[69].startY 965m
param *.uav[69].startZ 539m
param *.uav[70].startX 3537m
param *.uav[70].startY 965m
param *.uav[70].startZ 539m
param *.uav[71].startX 312m
param *.uav[71].startY 1262m
param *.uav[71].startZ 540m
param *.uav[72].startX 2185m
param *.uav[72].startY 3026m
param *.uav[72].startZ 778m
param *.uav[73].startX 3537m
param *.uav[73].startY 965m
param *.uav[73].startZ 539m
param *.uav[74].startX 312m
param *.uav[74].startY 1262m
param *.uav[74].startZ 540m
param *.uav[75].startX 2185m
param *.uav[75].startY 3026m
param *.uav[75].startZ 778m
param *.uav[76].startX 3537m
param *.uav[76].startY 965m
param *.uav[76].startZ 539m
param *.uav[77].startX 312m
param *.uav[77].startY 1262m
param *.uav[77].startZ 540m
param *.uav[78].startX 2185m
param *.uav[78].startY 3026m
param *.uav[78].startZ 778m
param *.uav[79].startX 3537m
param *.uav[79].startY 965m
param *.uav[79].startZ 539m
param *.uav[80].startX 3537m
param *.uav[80].startY 965m
param *.uav[80].startZ 539m
param *.uav[81].startX 312m
param *.uav[81].startY 1262m
param *.uav[81].startZ 540m
param *.uav[82].startX 2185m
param *.uav[82].startY 3026m
param *.uav[82].startZ 778m
param *.uav[83].startX 3537m
param *.uav[83].startY 965m
param *.uav[83].startZ 539m
param *.uav[84].startX 312m
param *.uav[84].startY 1262m
param *.uav[84].startZ 540m
param *.uav[85].startX 2185m
param *.uav[85].startY 3026m
param *.uav[85].startZ 778m
param *.uav[86].startX 3537m
param *.uav[86].startY 965m
param *.uav[86].startZ 539m
param *.uav[87].startX 312m
param *.uav[87].startY 1262m
param *.uav[87].startZ 540m
param *.uav[88].startX 2185m
param *.uav[88].startY 3026m
param *.uav[88].startZ 778m
param *.uav[89].startX 3537m
param *.uav[89].startY 965m
param *.uav[89].startZ 539m
param *.uav[90].startX 3537m
param *.uav[90].startY 965m
param *.uav[90].startZ 539m
param *.uav[91].startX 312m
param *.uav[91].startY 1262m
param *.uav[91].startZ 540m
param *.uav[92].startX 2185m
param *.uav[92].startY 3026m
param *.uav[92].startZ 778m
param *.uav[93].startX 3537m
param *.uav[93].startY 965m
param *.uav[93].startZ 539m
param *.uav[94].startX 312m
param *.uav[94].startY 1262m
param *.uav[94].startZ 540m
param *.uav[95].startX 2185m
param *.uav[95].startY 3026m
param *.uav[95].startZ 778m
param *.uav[96].startX 3537m
param *.uav[96].startY 965m
param *.uav[96].startZ 539m
param *.uav[97].startX 312m
param *.uav[97].startY 1262m
param *.uav[97].startZ 540m
param *.uav[98].startX 2185m
param *.uav[98].startY 3026m
param *.uav[98].startZ 778m
param *.uav[99].startX 3537m
param *.uav[99].startY 965m
param *.uav[99].startZ 539m
param *.osgEarthScene.scene "\"boston.earth\""
param *.playgroundLatitude 42.3558
param *.playgroundLongitude -71.0677
param *.playgroundWidth 400m
param *.playgroundHeight 200m
param *.channelController.connectionColor "\"#0000FF40\""
param *.channelController.showConnections false
param *.uav[*].modelURL "\"quadrocopter.small.obj.15.scale.0,0,90.rot\""
param *.uav[*].labelColor "\"#FF7C00CC\""
param *.uav[*].label2Color "\"#FF7C00EE\""
param *.uav[*].batteryCapacity 5200mAh
param *.uav[*].batteryRemaining uav[index].batteryCapacity
param *.uav[*].predictionQuantile 0.95
param *.uav[*].replacementMethod 2
param *.uav[*].weightedSumWeight 0.5
param *.cs[*].modelURL "\"chargingstation_v1.osgt.2.scale.0,0,0.rot.0,0,-15e-1.trans\""
param *.cs[*].spotsWaiting 999
param *.cs[*].spotsCharging 999
param *.cs[*].chargeEffectivenessPercentage 100
param *.cs[*].nonLinearPhaseStartPercentage 85
param *.cs[*].chargeCurrent 6.0A
param *.cs[*].prioritizeFastCharge true
param *.missionControl.replacementSearchMethod 0
param *.*.timeStep 9s

scalar OsgEarthNet.uav[0] utilizationSecMission 480
scalar OsgEarthNet.uav[0] utilizationSecMaintenance 447.1303002674
scalar OsgEarthNet.uav[0] utilizationSecCharge 3550
scalar OsgEarthNet.uav[0] utilizationSecIdle 254722.86869973
scalar OsgEarthNet.uav[0] utilizationEnergyMission 2529.0127944946
scalar OsgEarthNet.uav[0] utilizationEnergyMaintenance 2153.9756584167
scalar OsgEarthNet.uav[0] utilizationEnergyCharge 4606.6499023438
scalar OsgEarthNet.uav[0] utilizationEnergyOverdrawMission 0
scalar OsgEarthNet.uav[0] utilizationEnergyOverdrawMaintenance 0
scalar OsgEarthNet.uav[0] utilizationCountMissions 1
scalar OsgEarthNet.uav[0] utilizationCountManeuversMission 24
scalar OsgEarthNet.uav[0] utilizationCountManeuversMaintenance 2
scalar OsgEarthNet.uav[0] utilizationCountChargeState 1
scalar OsgEarthNet.uav[0] utilizationCountOverdrawnAfterMission 0
scalar OsgEarthNet.uav[0] utilizationCountIdleState 2
scalar OsgEarthNet.uav[0] utilizationFail 0
scalar OsgEarthNet.uav[0] simulationTime 259200
scalar OsgEarthNet.uav[1] utilizationSecMission 500
scalar OsgEarthNet.uav[1] utilizationSecMaintenance 395.21104267299
scalar OsgEarthNet.uav[1] utilizationSecCharge 3520
scalar OsgEarthNet.uav[1] utilizationSecIdle 254784.78795733
scalar OsgEarthNet.uav[1] utilizationEnergyMission 2677.9597702026
scalar OsgEarthNet.uav[1] utilizationEnergyMaintenance 1711.6790885925
scalar OsgEarthNet.uav[1] utilizationEnergyCharge 4546.3129882812
scalar OsgEarthNet.uav[1] utilizationEnergyOverdrawMission 0
scalar OsgEarthNet.uav[1] utilizationEnergyOverdrawMaintenance 0
scalar OsgEarthNet.uav[1] utilizationCountMissions 1
scalar OsgEarthNet.uav[1] utilizationCountManeuversMission 25
scalar OsgEarthNet.uav[1] utilizationCountManeuversMaintenance 2
scalar OsgEarthNet.uav[1] utilizationCountChargeState 1
scalar OsgEarthNet.uav[1] utilizationCountOverdrawnAfterMission 0
scalar OsgEarthNet.uav[1] utilizationCountIdleState 2
scalar OsgEarthNet.uav[1] utilizationFail 0
scalar OsgEarthNet.uav[1] simulationTime 259200
scalar OsgEarthNet.uav[2] utilizationSecMission 40684.032623646
scalar OsgEarthNet.uav[2] utilizationSecMaintenance 18543.963376354
scalar OsgEarthNet.uav[2] utilizationSecCharge 197480
scalar OsgEarthNet.uav[2] utilizationSecIdle 2492.003
scalar OsgEarthNet.uav[2] utilizationEnergyMission 197067.62494602
scalar OsgEarthNet.uav[2] utilizationEnergyMaintenance 85197.932674408
scalar OsgEarthNet.uav[2] utilizationEnergyCharge 280553.60351562
scalar OsgEarthNet.uav[2] utilizationEnergyOverdrawMission 0
scalar OsgEarthNet.uav[2] utilizationEnergyOverdrawMaintenance 0
scalar OsgEarthNet.uav[2] utilizationCountMissions 61
scalar OsgEarthNet.uav[2] utilizationCountManeuversMission 1277
scalar OsgEarthNet.uav[2] utilizationCountManeuversMaintenance 123
scalar OsgEarthNet.uav[2] utilizationCountChargeState 61
scalar OsgEarthNet.uav[2] utilizationCountOverdrawnAfterMission 0
scalar OsgEarthNet.uav[2] utilizationCountIdleState 7
scalar OsgEarthNet.uav[2] utilizationFail 0
scalar OsgEarthNet.uav[2] simulationTime 259200
scalar OsgEarthNet.uav[3] utilizationSecMission 980
scalar OsgEarthNet.uav[3] utilizationSecMaintenance 894.56202711707
scalar OsgEarthNet.uav[3] utilizationSecCharge 7100
scalar OsgEarthNet.uav[3] utilizationSecIdle 250225.43697288
scalar OsgEarthNet.uav[3] utilizationEnergyMission 4745.9165725708
scalar OsgEarthNet.uav[3] utilizationEnergyMaintenance 4290.5562362671
scalar OsgEarthNet.uav[3] utilizationEnergyCharge 9230.7241210938
scalar OsgEarthNet.uav[3] utilizationEnergyOverdrawMission 0
scalar OsgEarthNet.uav[3] utilizationEnergyOverdrawMaintenance 0
scalar OsgEarthNet.uav[3] utilizationCountMissions 2
scalar OsgEarthNet.uav[3] utilizationCountManeuversMission 49
scalar OsgEarthNet.uav[3] utilizationCountManeuversMaintenance 4
scalar OsgEarthNet.uav[3] utilizationCountChargeState 2
scalar OsgEarthNet.uav[3] utilizationCountOverdrawnAfterMission 0
scalar OsgEarthNet.uav[3] utilizationCountIdleState 3
scalar OsgEarthNet.uav[3] utilizationFail 0
scalar OsgEarthNet.uav[3] simulationTime 259200
scalar OsgEarthNet.uav[4] utilizationSecMission 793.40226662093
scalar OsgEarthNet.uav[4] utilizationSecMaintenance 677.8090955602
scalar OsgEarthNet.uav[4] utilizationSecCharge 5870
scalar OsgEarthNet.uav[4] utilizationSecIdle 251858.78763782
scalar OsgEarthNet.uav[4] utilizationEnergyMission 4257.5308799744
scalar OsgEarthNet.uav[4] utilizationEnergyMaintenance 3237.0973434448
scalar OsgEarthNet.uav[4] utilizationEnergyCharge 7031.0012207031
scalar OsgEarthNet.uav[4] utilizationEnergyOverdrawMission 0
scalar OsgEarthNet.uav[4] utilizationEnergyOverdrawMaintenance 0
scalar OsgEarthNet.uav[4] utilizationCountMissions 2
scalar OsgEarthNet.uav[4] utilizationCountManeuversMission 32
scalar OsgEarthNet.uav[4] utilizationCountManeuversMaintenance 4
scalar OsgEarthNet.uav[4] utilizationCountChargeState 2
scalar OsgEarthNet.uav[4] utilizationCountOverdrawnAfterMission 0
scalar OsgEarthNet.uav[4] utilizationCountIdleState 3
scalar OsgEarthNet.uav[4] utilizationFail 0
scalar OsgEarthNet.uav[4] simulationTime 259200
scalar OsgEarthNet.uav[5] utilizationSecMission 40639.098875692
scalar OsgEarthNet.uav[5] utilizationSecMaintenance 18434.157158537
scalar OsgEarthNet.uav[5] utilizationSecCharge 196884.73896577
scalar OsgEarthNet.uav[5] utilizationSecIdle 3242.004
scalar OsgEarthNet.uav[5] utilizationEnergyMission 195921.60990143
scalar OsgEarthNet.uav[5] utilizationEnergyMaintenance 85554.440235138
scalar OsgEarthNet.uav[5] utilizationEnergyCharge 281624.00341797
scalar OsgEarthNet.uav[5] utilizationEnergyOverdrawMission 0
scalar OsgEarthNet.uav[5] utilizationEnergyOverdrawMaintenance 0
scalar OsgEarthNet.uav[5] utilizationCountMissions 62
scalar OsgEarthNet.uav[5] utilizationCountManeuversMission 1301
scalar OsgEarthNet.uav[5] utilizationCountManeuversMaintenance 124
scalar OsgEarthNet.uav[5] utilizationCountChargeState 62
scalar OsgEarthNet.uav[5] utilizationCountOverdrawnAfterMission 0
scalar OsgEarthNet.uav[5] utilizationCountIdleState 7
scalar OsgEarthNet.uav[5] utilizationFail 0
scalar OsgEarthNet.uav[5] simulationTime 259200
scalar OsgEarthNet.uav[6] utilizationSecMission 2461.2503051606
scalar OsgEarthNet.uav[6] utilizationSecMaintenance 1290.9657679322
scalar OsgEarthNet.uav[6] utilizationSecCharge 13790
scalar OsgEarthNet.uav[6] utilizationSecIdle 241657.78292691
scalar OsgEarthNet.uav[6] utilizationEnergyMission 11863.270149231
scalar OsgEarthNet.uav[6] utilizationEnergyMaintenance 6060.5997276306
scalar OsgEarthNet.uav[6] utilizationEnergyCharge 17771.181640625
scalar OsgEarthNet.uav[6] utilizationEnergyOverdrawMission 0
scalar OsgEarthNet.uav[6] utilizationEnergyOverdrawMaintenance 0
scalar OsgEarthNet.uav[6] utilizationCountMissions 4
scalar OsgEarthNet.uav[6] utilizationCountManeuversMission 71
scalar OsgEarthNet.uav[6] utilizationCountManeuversMaintenance 8
scalar OsgEarthNet.uav[6] utilizationCountChargeState 4
scalar OsgEarthNet.uav[6] utilizationCountOverdrawnAfterMission 0
scalar OsgEarthNet.uav[6] utilizationCountIdleState 5
scalar OsgEarthNet.uav[6] utilizationFail 0
scalar OsgEarthNet.uav[6] simulationTime 259200
scalar OsgEarthNet.uav[7] utilizationSecMission 6889.0502943736
scalar OsgEarthNet.uav[7] utilizationSecMaintenance 4877.58516699
scalar OsgEarthNet.uav[7] utilizationSecCharge 45710
scalar OsgEarthNet.uav[7] utilizationSecIdle 201723.36353864
scalar OsgEarthNet.uav[7] utilizationEnergyMission 34409.871257782
scalar OsgEarthNet.uav[7] utilizationEnergyMaintenance 23174.330940247
scalar OsgEarthNet.uav[7] utilizationEnergyCharge 57005.296875
scalar OsgEarthNet.uav[7] utilizationEnergyOverdrawMission 0
scalar OsgEarthNet.uav[7] utilizationEnergyOverdrawMaintenance 0
scalar OsgEarthNet.uav[7] utilizationCountMissions 14
scalar OsgEarthNet.uav[7] utilizationCountManeuversMission 255
scalar OsgEarthNet.uav[7] utilizationCountManeuversMaintenance 28
scalar OsgEarthNet.uav[7] utilizationCountChargeState 14
scalar OsgEarthNet.uav[7] utilizationCountOverdrawnAfterMission 0
scalar OsgEarthNet.uav[7] utilizationCountIdleState 15
scalar OsgEarthNet.uav[7] utilizationFail 0
scalar OsgEarthNet.uav[7] simulationTime 259200
scalar OsgEarthNet.uav[8] utilizationSecMission 40942.296618351
scalar OsgEarthNet.uav[8] utilizationSecMaintenance 17833.338354565
scalar OsgEarthNet.uav[8] utilizationSecCharge 197812.36002708
scalar OsgEarthNet.uav[8] utilizationSecIdle 2612.004
scalar OsgEarthNet.uav[8] utilizationEnergyMission 199045.68727875
scalar OsgEarthNet.uav[8] utilizationEnergyMaintenance 83123.785419464
scalar OsgEarthNet.uav[8] utilizationEnergyCharge 281037.93017578
scalar OsgEarthNet.uav[8] utilizationEnergyOverdrawMission 0
scalar OsgEarthNet.uav[8] utilizationEnergyOverdrawMaintenance 0
scalar OsgEarthNet.uav[8] utilizationCountMissions 61
scalar OsgEarthNet.uav[8] utilizationCountManeuversMission 1199
scalar OsgEarthNet.uav[8] utilizationCountManeuversMaintenance 122
scalar OsgEarthNet.uav[8] utilizationCountChargeState 61
scalar OsgEarthNet.uav[8] utilizationCountOverdrawnAfterMission 0
scalar OsgEarthNet.uav[8] utilizationCountIdleState 8
scalar OsgEarthNet.uav[8] utilizationFail 0
scalar OsgEarthNet.uav[8] simulationTime 259200
scalar OsgEarthNet.uav[9] utilizationSecMission 1880
scalar OsgEarthNet.uav[9] utilizationSecMaintenance 1789.4254808164
scalar OsgEarthNet.uav[9] utilizationSecCharge 13920
scalar OsgEarthNet.uav[9] utilizationSecIdle 241610.57351918
scalar OsgEarthNet.uav[9] utilizationEnergyMission 9538.1585464478
scalar OsgEarthNet.uav[9] utilizationEnergyMaintenance 8312.3920745849
scalar OsgEarthNet.uav[9] utilizationEnergyCharge 17875.229980469
scalar OsgEarthNet.uav[9] utilizationEnergyOverdrawMission 0
scalar OsgEarthNet.uav[9] utilizationEnergyOverdrawMaintenance 0
scalar OsgEarthNet.uav[9] utilizationCountMissions 4
scalar OsgEarthNet.uav[9] utilizationCountManeuversMission 94
scalar OsgEarthNet.uav[9] utilizationCountManeuversMaintenance 8
scalar OsgEarthNet.uav[9] utilizationCountChargeState 4
scalar OsgEarthNet.uav[9] utilizationCountOverdrawnAfterMission 0
scalar OsgEarthNet.uav[9] utilizationCountIdleState 5
scalar OsgEarthNet.uav[9] utilizationFail 0
scalar OsgEarthNet.uav[9] simulationTime 259200
scalar OsgEarthNet.uav[10] utilizationSecMission 1660.6251525803
scalar OsgEarthNet.uav[10] utilizationSecMaintenance 1087.7482372535
scalar OsgEarthNet.uav[10] utilizationSecCharge 10640
scalar OsgEarthNet.uav[10] utilizationSecIdle 245811.62561017
scalar OsgEarthNet.uav[10] utilizationEnergyMission 8194.6250839233
scalar OsgEarthNet.uav[10] utilizationEnergyMaintenance 5102.1244544983
scalar OsgEarthNet.uav[10] utilizationEnergyCharge 13735.862304688
scalar OsgEarthNet.uav[10] utilizationEnergyOverdrawMission 0
scalar OsgEarthNet.uav[10] utilizationEnergyOverdrawMaintenance 0
scalar OsgEarthNet.uav[10] utilizationCountMissions 3
scalar OsgEarthNet.uav[10] utilizationCountManeuversMission 57
scalar OsgEarthNet.uav[10] utilizationCountManeuversMaintenance 6
scalar OsgEarthNet.uav[10] utilizationCountChargeState 3
scalar OsgEarthNet.uav[10] utilizationCountOverdrawnAfterMission 0
scalar OsgEarthNet.uav[10] utilizationCountIdleState 4
scalar OsgEarthNet.uav[10] utilizationFail 0
scalar OsgEarthNet.uav[10] simulationTime 259200
scalar OsgEarthNet.uav[11] utilizationSecMission 17916.696448003
scalar OsgEarthNet.uav[11] utilizationSecMaintenance 12266.505622068
scalar OsgEarthNet.uav[11] utilizationSecCharge 114354.79692993
scalar OsgEarthNet.uav[11] utilizationSecIdle 114662
scalar OsgEarthNet.uav[11] utilizationEnergyMission 87528.604984283
scalar OsgEarthNet.uav[11] utilizationEnergyMaintenance 57738.902877808
scalar OsgEarthNet.uav[11] utilizationEnergyCharge 142984.73400879
scalar OsgEarthNet.uav[11] utilizationEnergyOverdrawMission 0
scalar OsgEarthNet.uav[11] utilizationEnergyOverdrawMaintenance 0
scalar OsgEarthNet.uav[11] utilizationCountMissions 36
scalar OsgEarthNet.uav[11] utilizationCountManeuversMission 613
scalar OsgEarthNet.uav[11] utilizationCountManeuversMaintenance 72
scalar OsgEarthNet.uav[11] utilizationCountChargeState 36
scalar OsgEarthNet.uav[11] utilizationCountOverdrawnAfterMission 0
scalar OsgEarthNet.uav[11] utilizationCountIdleState 36
scalar OsgEarthNet.uav[11] utilizationFail 0
scalar OsgEarthNet.uav[11] simulationTime 259200
scalar OsgEarthNet.uav[12] utilizationSecMission 41792.860667759
scalar OsgEarthNet.uav[12] utilizationSecMaintenance 17620.904521607
scalar OsgEarthNet.uav[12] utilizationSecCharge 195080.21054484
scalar OsgEarthNet.uav[12] utilizationSecIdle 4706.0232657979
scalar OsgEarthNet.uav[12] utilizationEnergyMission 198385.47835541
scalar OsgEarthNet.uav[12] utilizationEnergyMaintenance 81207.80657196
scalar OsgEarthNet.uav[12] utilizationEnergyCharge 276335.82080078
scalar OsgEarthNet.uav[12] utilizationEnergyOverdrawMission 0
scalar OsgEarthNet.uav[12] utilizationEnergyOverdrawMaintenance 0
scalar OsgEarthNet.uav[12] utilizationCountMissions 61
scalar OsgEarthNet.uav[12] utilizationCountManeuversMission 1184
scalar OsgEarthNet.uav[12] utilizationCountManeuversMaintenance 122
scalar OsgEarthNet.uav[12] utilizationCountChargeState 61
scalar OsgEarthNet.uav[12] utilizationCountOverdrawnAfterMission 0
scalar OsgEarthNet.uav[12] utilizationCountIdleState 11
scalar OsgEarthNet.uav[12] utilizationFail 0
scalar OsgEarthNet.uav[12] simulationTime 259200
scalar OsgEarthNet.uav[13] utilizationSecMission 1380
scalar OsgEarthNet.uav[13] utilizationSecMaintenance 1341.9937539667
scalar OsgEarthNet.uav[13] utilizationSecCharge 10420
scalar OsgEarthNet.uav[13] utilizationSecIdle 246058.00524603
scalar OsgEarthNet.uav[13] utilizationEnergyMission 7452.5901222229
scalar OsgEarthNet.uav[13] utilizationEnergyMaintenance 6538.3013038635
scalar OsgEarthNet.uav[13] utilizationEnergyCharge 13335.485351562
scalar OsgEarthNet.uav[13] utilizationEnergyOverdrawMission 0
scalar OsgEarthNet.uav[13] utilizationEnergyOverdrawMaintenance 0
scalar OsgEarthNet.uav[13] utilizationCountMissions 3
scalar OsgEarthNet.uav[13] utilizationCountManeuversMission 69
scalar OsgEarthNet.uav[13] utilizationCountManeuversMaintenance 6
scalar OsgEarthNet.uav[13] utilizationCountChargeState 3
scalar OsgEarthNet.uav[13] utilizationCountOverdrawnAfterMission 0
scalar OsgEarthNet.uav[13] utilizationCountIdleState 4
scalar OsgEarthNet.uav[13] utilizationFail 0
scalar OsgEarthNet.uav[13] simulationTime 259200
scalar OsgEarthNet.uav[14] utilizationSecMission 12001.750490623
scalar OsgEarthNet.uav[14] utilizationSecMaintenance 8403.2499216651
scalar OsgEarthNet.uav[14] utilizationSecCharge 78610
scalar OsgEarthNet.uav[14] utilizationSecIdle 160184.99858771
scalar OsgEarthNet.uav[14] utilizationEnergyMission 58986.166500092
scalar OsgEarthNet.uav[14] utilizationEnergyMaintenance 39748.598766327
scalar OsgEarthNet.uav[14] utilizationEnergyCharge 98387.695068359
scalar OsgEarthNet.uav[14] utilizationEnergyOverdrawMission 0
scalar OsgEarthNet.uav[14] utilizationEnergyOverdrawMaintenance 0
scalar OsgEarthNet.uav[14] utilizationCountMissions 24
scalar OsgEarthNet.uav[14] utilizationCountManeuversMission 451
scalar OsgEarthNet.uav[14] utilizationCountManeuversMaintenance 48
scalar OsgEarthNet.uav[14] utilizationCountChargeState 24
scalar OsgEarthNet.uav[14] utilizationCountOverdrawnAfterMission 0
scalar OsgEarthNet.uav[14] utilizationCountIdleState 25
scalar OsgEarthNet.uav[14] utilizationFail 0
scalar OsgEarthNet.uav[14] simulationTime 259200
scalar OsgEarthNet.uav[15] utilizationSecMission 41459.17407984
scalar OsgEarthNet.uav[15] utilizationSecMaintenance 18265.316319299
scalar OsgEarthNet.uav[15] utilizationSecCharge 198423.50860086
scalar OsgEarthNet.uav[15] utilizationSecIdle 1052
scalar OsgEarthNet.uav[15] utilizationEnergyMission 201819.65713663
scalar OsgEarthNet.uav[15] utilizationEnergyMaintenance 84717.696735382
scalar OsgEarthNet.uav[15] utilizationEnergyCharge 282505.3371582
scalar OsgEarthNet.uav[15] utilizationEnergyOverdrawMission 0
scalar OsgEarthNet.uav[15] utilizationEnergyOverdrawMaintenance 0
scalar OsgEarthNet.uav[15] utilizationCountMissions 62
scalar OsgEarthNet.uav[15] utilizationCountManeuversMission 1379
scalar OsgEarthNet.uav[15] utilizationCountManeuversMaintenance 123
scalar OsgEarthNet.uav[15] utilizationCountChargeState 62
scalar OsgEarthNet.uav[15] utilizationCountOverdrawnAfterMission 0
scalar OsgEarthNet.uav[15] utilizationCountIdleState 12
scalar OsgEarthNet.uav[15] utilizationFail 0
scalar OsgEarthNet.uav[15] simulationTime 259200
scalar OsgEarthNet.uav[16] utilizationSecMission 920
scalar OsgEarthNet.uav[16] utilizationSecMaintenance 894.56202711707
scalar OsgEarthNet.uav[16] utilizationSecCharge 7150
scalar OsgEarthNet.uav[16] utilizationSecIdle 250235.43697288
scalar OsgEarthNet.uav[16] utilizationEnergyMission 4463.0300178528
scalar OsgEarthNet.uav[16] utilizationEnergyMaintenance 4360.9947738647
scalar OsgEarthNet.uav[16] utilizationEnergyCharge 9232.7250976562
scalar OsgEarthNet.uav[16] utilizationEnergyOverdrawMission 0
scalar OsgEarthNet.uav[16] utilizationEnergyOverdrawMaintenance 0
scalar OsgEarthNet.uav[16] utilizationCountMissions 2
scalar OsgEarthNet.uav[16] utilizationCountManeuversMission 46
scalar OsgEarthNet.uav[16] utilizationCountManeuversMaintenance 4
scalar OsgEarthNet.uav[16] utilizationCountChargeState 2
scalar OsgEarthNet.uav[16] utilizationCountOverdrawnAfterMission 0
scalar OsgEarthNet.uav[16] utilizationCountIdleState 3
scalar OsgEarthNet.uav[16] utilizationFail 0
scalar OsgEarthNet.uav[16] simulationTime 259200
scalar OsgEarthNet.uav[17] utilizationSecMission 11015.152757244
scalar OsgEarthNet.uav[17] utilizationSecMaintenance 7884.7740681004
scalar OsgEarthNet.uav[17] utilizationSecCharge 73950
scalar OsgEarthNet.uav[17] utilizationSecIdle 166350.07217466
scalar OsgEarthNet.uav[17] utilizationEnergyMission 54028.268299103
scalar OsgEarthNet.uav[17] utilizationEnergyMaintenance 37607.175617218
scalar OsgEarthNet.uav[17] utilizationEnergyCharge 91835.202636719
scalar OsgEarthNet.uav[17] utilizationEnergyOverdrawMission 0
scalar OsgEarthNet.uav[17] utilizationEnergyOverdrawMaintenance 0
scalar OsgEarthNet.uav[17] utilizationCountMissions 23
scalar OsgEarthNet.uav[17] utilizationCountManeuversMission 394
scalar OsgEarthNet.uav[17] utilizationCountManeuversMaintenance 46
scalar OsgEarthNet.uav[17] utilizationCountChargeState 23
scalar OsgEarthNet.uav[17] utilizationCountOverdrawnAfterMission 0
scalar OsgEarthNet.uav[17] utilizationCountIdleState 24
scalar OsgEarthNet.uav[17] utilizationFail 0
scalar OsgEarthNet.uav[17] simulationTime 259200
scalar OsgEarthNet.uav[18] utilizationSecMission 42075.172735674
scalar OsgEarthNet.uav[18] utilizationSecMaintenance 17120.11551255
scalar OsgEarthNet.uav[18] utilizationSecCharge 195620
scalar OsgEarthNet.uav[18] utilizationSecIdle 4384.7107517761
scalar OsgEarthNet.uav[18] utilizationEnergyMission 203854.66982651
scalar OsgEarthNet.uav[18] utilizationEnergyMaintenance 79014.53429503
scalar OsgEarthNet.uav[18] utilizationEnergyCharge 276806.49072266
scalar OsgEarthNet.uav[18] utilizationEnergyOverdrawMission 0
scalar OsgEarthNet.uav[18] utilizationEnergyOverdrawMaintenance 0
scalar OsgEarthNet.uav[18] utilizationCountMissions 61
scalar OsgEarthNet.uav[18] utilizationCountManeuversMission 1277
scalar OsgEarthNet.uav[18] utilizationCountManeuversMaintenance 122
scalar OsgEarthNet.uav[18] utilizationCountChargeState 60
scalar OsgEarthNet.uav[18] utilizationCountOverdrawnAfterMission 0
scalar OsgEarthNet.uav[18] utilizationCountIdleState 8
scalar OsgEarthNet.uav[18] utilizationFail 0
scalar OsgEarthNet.uav[18] simulationTime 259200
scalar OsgEarthNet.uav[19] utilizationSecMission 2501.2503051606
scalar OsgEarthNet.uav[19] utilizationSecMaintenance 1378.3330899013
scalar OsgEarthNet.uav[19] utilizationSecCharge 14220
scalar OsgEarthNet.uav[19] utilizationSecIdle 241100.41560494
scalar OsgEarthNet.uav[19] utilizationEnergyMission 11916.521858215
scalar OsgEarthNet.uav[19] utilizationEnergyMaintenance 6500.1711387634
scalar OsgEarthNet.uav[19] utilizationEnergyCharge 18420.79296875
scalar OsgEarthNet.uav[19] utilizationEnergyOverdrawMission 0
scalar OsgEarthNet.uav[19] utilizationEnergyOverdrawMaintenance 0
scalar OsgEarthNet.uav[19] utilizationCountMissions 4
scalar OsgEarthNet.uav[19] utilizationCountManeuversMission 73
scalar OsgEarthNet.uav[19] utilizationCountManeuversMaintenance 8
scalar OsgEarthNet.uav[19] utilizationCountChargeState 4
scalar OsgEarthNet.uav[19] utilizationCountOverdrawnAfterMission 0
scalar OsgEarthNet.uav[19] utilizationCountIdleState 5
scalar OsgEarthNet.uav[19] utilizationFail 0
scalar OsgEarthNet.uav[19] simulationTime 259200
scalar OsgEarthNet.uav[20] utilizationSecMission 41937.296803276
scalar OsgEarthNet.uav[20] utilizationSecMaintenance 17723.416251614
scalar OsgEarthNet.uav[20] utilizationSecCharge 198317.28594511
scalar OsgEarthNet.uav[20] utilizationSecIdle 1222
scalar OsgEarthNet.uav[20] utilizationEnergyMission 204414.48642731
scalar OsgEarthNet.uav[20] utilizationEnergyMaintenance 82332.974128723
scalar OsgEarthNet.uav[20] utilizationEnergyCharge 279729.32388306
scalar OsgEarthNet.uav[20] utilizationEnergyOverdrawMission 0
scalar OsgEarthNet.uav[20] utilizationEnergyOverdrawMaintenance 0
scalar OsgEarthNet.uav[20] utilizationCountMissions 62
scalar OsgEarthNet.uav[20] utilizationCountManeuversMission 1217
scalar OsgEarthNet.uav[20] utilizationCountManeuversMaintenance 123
scalar OsgEarthNet.uav[20] utilizationCountChargeState 62
scalar OsgEarthNet.uav[20] utilizationCountOverdrawnAfterMission 0
scalar OsgEarthNet.uav[20] utilizationCountIdleState 9
scalar OsgEarthNet.uav[20] utilizationFail 0
scalar OsgEarthNet.uav[20] simulationTime 259200
scalar OsgEarthNet.uav[21] utilizationSecMission 32235.254614025
scalar OsgEarthNet.uav[21] utilizationSecMaintenance 14753.452199993
scalar OsgEarthNet.uav[21] utilizationSecCharge 159999.28818598
scalar OsgEarthNet.uav[21] utilizationSecIdle 52212.004
scalar OsgEarthNet.uav[21] utilizationEnergyMission 156840.44255066
scalar OsgEarthNet.uav[21] utilizationEnergyMaintenance 67866.142612457
scalar OsgEarthNet.uav[21] utilizationEnergyCharge 221552.78320312
scalar OsgEarthNet.uav[21] utilizationEnergyOverdrawMission 0
scalar OsgEarthNet.uav[21] utilizationEnergyOverdrawMaintenance 0
scalar OsgEarthNet.uav[21] utilizationCountMissions 51
scalar OsgEarthNet.uav[21] utilizationCountManeuversMission 1029
scalar OsgEarthNet.uav[21] utilizationCountManeuversMaintenance 102
scalar OsgEarthNet.uav[21] utilizationCountChargeState 51
scalar OsgEarthNet.uav[21] utilizationCountOverdrawnAfterMission 0
scalar OsgEarthNet.uav[21] utilizationCountIdleState 16
scalar OsgEarthNet.uav[21] utilizationFail 0
scalar OsgEarthNet.uav[21] simulationTime 259200
scalar OsgEarthNet.uav[22] utilizationSecMission 41774.878984377
scalar OsgEarthNet.uav[22] utilizationSecMaintenance 18063.893665335
scalar OsgEarthNet.uav[22] utilizationSecCharge 198829.22635029
scalar OsgEarthNet.uav[22] utilizationSecIdle 532
scalar OsgEarthNet.uav[22] utilizationEnergyMission 203354.1693842
scalar OsgEarthNet.uav[22] utilizationEnergyMaintenance 82883.964576721
scalar OsgEarthNet.uav[22] utilizationEnergyCharge 282546.30883789
scalar OsgEarthNet.uav[22] utilizationEnergyOverdrawMission 0
scalar OsgEarthNet.uav[22] utilizationEnergyOverdrawMaintenance 0
scalar OsgEarthNet.uav[22] utilizationCountMissions 62
scalar OsgEarthNet.uav[22] utilizationCountManeuversMission 1359
scalar OsgEarthNet.uav[22] utilizationCountManeuversMaintenance 123
scalar OsgEarthNet.uav[22] utilizationCountChargeState 62
scalar OsgEarthNet.uav[22] utilizationCountOverdrawnAfterMission 0
scalar OsgEarthNet.uav[22] utilizationCountIdleState 11
scalar OsgEarthNet.uav[22] utilizationFail 0
scalar OsgEarthNet.uav[22] simulationTime 259200
scalar OsgEarthNet.uav[23] utilizationSecMission 1961.2503051606
scalar OsgEarthNet.uav[23] utilizationSecMaintenance 843.53404108258
scalar OsgEarthNet.uav[23] utilizationSecCharge 10680
scalar OsgEarthNet.uav[23] utilizationSecIdle 245715.21465376
scalar OsgEarthNet.uav[23] utilizationEnergyMission 9548.2699623108
scalar OsgEarthNet.uav[23] utilizationEnergyMaintenance 4059.1186676025
scalar OsgEarthNet.uav[23] utilizationEnergyCharge 13839.2421875
scalar OsgEarthNet.uav[23] utilizationEnergyOverdrawMission 0
scalar OsgEarthNet.uav[23] utilizationEnergyOverdrawMaintenance 0
scalar OsgEarthNet.uav[23] utilizationCountMissions 3
scalar OsgEarthNet.uav[23] utilizationCountManeuversMission 46
scalar OsgEarthNet.uav[23] utilizationCountManeuversMaintenance 6
scalar OsgEarthNet.uav[23] utilizationCountChargeState 3
scalar OsgEarthNet.uav[23] utilizationCountOverdrawnAfterMission 0
scalar OsgEarthNet.uav[23] utilizationCountIdleState 4
scalar OsgEarthNet.uav[23] utilizationFail 0
scalar OsgEarthNet.uav[23] simulationTime 259200
scalar OsgEarthNet.uav[24] utilizationSecMission 11801.048420251
scalar OsgEarthNet.uav[24] utilizationSecMaintenance 8076.827753125
scalar OsgEarthNet.uav[24] utilizationSecCharge 76840
scalar OsgEarthNet.uav[24] utilizationSecIdle 162482.12282662
scalar OsgEarthNet.uav[24] utilizationEnergyMission 57304.16110611
scalar OsgEarthNet.uav[24] utilizationEnergyMaintenance 37675.785564423
scalar OsgEarthNet.uav[24] utilizationEnergyCharge 95189.59765625
scalar OsgEarthNet.uav[24] utilizationEnergyOverdrawMission 0
scalar OsgEarthNet.uav[24] utilizationEnergyOverdrawMaintenance 0
scalar OsgEarthNet.uav[24] utilizationCountMissions 24
scalar OsgEarthNet.uav[24] utilizationCountManeuversMission 389
scalar OsgEarthNet.uav[24] utilizationCountManeuversMaintenance 48
scalar OsgEarthNet.uav[24] utilizationCountChargeState 24
scalar OsgEarthNet.uav[24] utilizationCountOverdrawnAfterMission 0
scalar OsgEarthNet.uav[24] utilizationCountIdleState 25
scalar OsgEarthNet.uav[24] utilizationFail 0
scalar OsgEarthNet.uav[24] simulationTime 259200
scalar OsgEarthNet.uav[25] utilizationSecMission 41514.489078593
scalar OsgEarthNet.uav[25] utilizationSecMaintenance 17574.359692732
scalar OsgEarthNet.uav[25] utilizationSecCharge 196061.10768126
scalar OsgEarthNet.uav[25] utilizationSecIdle 4050.0425474148
scalar OsgEarthNet.uav[25] utilizationEnergyMission 200740.54037094
scalar OsgEarthNet.uav[25] utilizationEnergyMaintenance 81503.752178192
scalar OsgEarthNet.uav[25] utilizationEnergyCharge 278132.49316406
scalar OsgEarthNet.uav[25] utilizationEnergyOverdrawMission 0
scalar OsgEarthNet.uav[25] utilizationEnergyOverdrawMaintenance 0
scalar OsgEarthNet.uav[25] utilizationCountMissions 61
scalar OsgEarthNet.uav[25] utilizationCountManeuversMission 1165
scalar OsgEarthNet.uav[25] utilizationCountManeuversMaintenance 122
scalar OsgEarthNet.uav[25] utilizationCountChargeState 61
scalar OsgEarthNet.uav[25] utilizationCountOverdrawnAfterMission 0
scalar OsgEarthNet.uav[25] utilizationCountIdleState 7
scalar OsgEarthNet.uav[25] utilizationFail 0
scalar OsgEarthNet.uav[25] simulationTime 259200
scalar OsgEarthNet.uav[26] utilizationSecMission 3661.8754577408
scalar OsgEarthNet.uav[26] utilizationSecMaintenance 2096.2870283139
scalar OsgEarthNet.uav[26] utilizationSecCharge 21140
scalar OsgEarthNet.uav[26] utilizationSecIdle 232301.83651395
scalar OsgEarthNet.uav[26] utilizationEnergyMission 17647.821617126
scalar OsgEarthNet.uav[26] utilizationEnergyMaintenance 9865.4190444946
scalar OsgEarthNet.uav[26] utilizationEnergyCharge 27250.986328125
scalar OsgEarthNet.uav[26] utilizationEnergyOverdrawMission 0
scalar OsgEarthNet.uav[26] utilizationEnergyOverdrawMaintenance 0
scalar OsgEarthNet.uav[26] utilizationCountMissions 6
scalar OsgEarthNet.uav[26] utilizationCountManeuversMission 105
scalar OsgEarthNet.uav[26] utilizationCountManeuversMaintenance 12
scalar OsgEarthNet.uav[26] utilizationCountChargeState 6
scalar OsgEarthNet.uav[26] utilizationCountOverdrawnAfterMission 0
scalar OsgEarthNet.uav[26] utilizationCountIdleState 7
scalar OsgEarthNet.uav[26] utilizationFail 0
scalar OsgEarthNet.uav[26] simulationTime 259200
scalar OsgEarthNet.uav[27] utilizationSecMission 13392.20492574
scalar OsgEarthNet.uav[27] utilizationSecMaintenance 9968.9795127344
scalar OsgEarthNet.uav[27] utilizationSecCharge 91910
scalar OsgEarthNet.uav[27] utilizationSecIdle 143928.81456153
scalar OsgEarthNet.uav[27] utilizationEnergyMission 67941.971420288
scalar OsgEarthNet.uav[27] utilizationEnergyMaintenance 47359.051376343
scalar OsgEarthNet.uav[27] utilizationEnergyCharge 115114.17602539
scalar OsgEarthNet.uav[27] utilizationEnergyOverdrawMission 0
scalar OsgEarthNet.uav[27] utilizationEnergyOverdrawMaintenance 0
scalar OsgEarthNet.uav[27] utilizationCountMissions 28
scalar OsgEarthNet.uav[27] utilizationCountManeuversMission 535
scalar OsgEarthNet.uav[27] utilizationCountManeuversMaintenance 56
scalar OsgEarthNet.uav[27] utilizationCountChargeState 28
scalar OsgEarthNet.uav[27] utilizationCountOverdrawnAfterMission 0
scalar OsgEarthNet.uav[27] utilizationCountIdleState 29
scalar OsgEarthNet.uav[27] utilizationFail 0
scalar OsgEarthNet.uav[27] simulationTime 259200
scalar OsgEarthNet.uav[28] utilizationSecMission 42129.090776279
scalar OsgEarthNet.uav[28] utilizationSecMaintenance 17641.516075157
scalar OsgEarthNet.uav[28] utilizationSecCharge 198827.39214856
scalar OsgEarthNet.uav[28] utilizationSecIdle 602
scalar OsgEarthNet.uav[28] utilizationEnergyMission 202524.14647293
scalar OsgEarthNet.uav[28] utilizationEnergyMaintenance 81826.259906769
scalar OsgEarthNet.uav[28] utilizationEnergyCharge 282414.75585938
scalar OsgEarthNet.uav[28] utilizationEnergyOverdrawMission 0
scalar OsgEarthNet.uav[28] utilizationEnergyOverdrawMaintenance 0
scalar OsgEarthNet.uav[28] utilizationCountMissions 62
scalar OsgEarthNet.uav[28] utilizationCountManeuversMission 1292
scalar OsgEarthNet.uav[28] utilizationCountManeuversMaintenance 124
scalar OsgEarthNet.uav[28] utilizationCountChargeState 62
scalar OsgEarthNet.uav[28] utilizationCountOverdrawnAfterMission 0
scalar OsgEarthNet.uav[28] utilizationCountIdleState 10
scalar OsgEarthNet.uav[28] utilizationFail 0
scalar OsgEarthNet.uav[28] simulationTime 259200
scalar OsgEarthNet.uav[29] utilizationSecMission 760.62515258028
scalar OsgEarthNet.uav[29] utilizationSecMaintenance 202.91610409653
scalar OsgEarthNet.uav[29] utilizationSecCharge 3500
scalar OsgEarthNet.uav[29] utilizationSecIdle 254736.45774332
scalar OsgEarthNet.uav[29] utilizationEnergyMission 3526.4176177979
scalar OsgEarthNet.uav[29] utilizationEnergyMaintenance 908.62313079834
scalar OsgEarthNet.uav[29] utilizationEnergyCharge 4508.3857421875
scalar OsgEarthNet.uav[29] utilizationEnergyOverdrawMission 0
scalar OsgEarthNet.uav[29] utilizationEnergyOverdrawMaintenance 0
scalar OsgEarthNet.uav[29] utilizationCountMissions 1
scalar OsgEarthNet.uav[29] utilizationCountManeuversMission 12
scalar OsgEarthNet.uav[29] utilizationCountManeuversMaintenance 2
scalar OsgEarthNet.uav[29] utilizationCountChargeState 1
scalar OsgEarthNet.uav[29] utilizationCountOverdrawnAfterMission 0
scalar OsgEarthNet.uav[29] utilizationCountIdleState 2
scalar OsgEarthNet.uav[29] utilizationFail 0
scalar OsgEarthNet.uav[29] simulationTime 259200
scalar OsgEarthNet.uav[30] utilizationSecMission 15986.251525803
scalar OsgEarthNet.uav[30] utilizationSecMaintenance 10160.066402014
scalar OsgEarthNet.uav[30] utilizationSecCharge 97880
scalar OsgEarthNet.uav[30] utilizationSecIdle 135173.68107218
scalar OsgEarthNet.uav[30] utilizationEnergyMission 78236.810333252
scalar OsgEarthNet.uav[30] utilizationEnergyMaintenance 48261.489944458
scalar OsgEarthNet.uav[30] utilizationEnergyCharge 125556.10644531
scalar OsgEarthNet.uav[30] utilizationEnergyOverdrawMission 0
scalar OsgEarthNet.uav[30] utilizationEnergyOverdrawMaintenance 0
scalar OsgEarthNet.uav[30] utilizationCountMissions 28
scalar OsgEarthNet.uav[30] utilizationCountManeuversMission 539
scalar OsgEarthNet.uav[30] utilizationCountManeuversMaintenance 56
scalar OsgEarthNet.uav[30] utilizationCountChargeState 28
scalar OsgEarthNet.uav[30] utilizationCountOverdrawnAfterMission 0
scalar OsgEarthNet.uav[30] utilizationCountIdleState 29
scalar OsgEarthNet.uav[30] utilizationFail 0
scalar OsgEarthNet.uav[30] simulationTime 259200
scalar OsgEarthNet.uav[31] utilizationSecMission 15887.64615363
scalar OsgEarthNet.uav[31] utilizationSecMaintenance 10948.034313609
scalar OsgEarthNet.uav[31] utilizationSecCharge 104520
scalar OsgEarthNet.uav[31] utilizationSecIdle 127844.31853276
scalar OsgEarthNet.uav[31] utilizationEnergyMission 78675.510028839
scalar OsgEarthNet.uav[31] utilizationEnergyMaintenance 52548.304920197
scalar OsgEarthNet.uav[31] utilizationEnergyCharge 132467.33520508
scalar OsgEarthNet.uav[31] utilizationEnergyOverdrawMission 0
scalar OsgEarthNet.uav[31] utilizationEnergyOverdrawMaintenance 0
scalar OsgEarthNet.uav[31] utilizationCountMissions 31
scalar OsgEarthNet.uav[31] utilizationCountManeuversMission 601
scalar OsgEarthNet.uav[31] utilizationCountManeuversMaintenance 62
scalar OsgEarthNet.uav[31] utilizationCountChargeState 31
scalar OsgEarthNet.uav[31] utilizationCountOverdrawnAfterMission 0
scalar OsgEarthNet.uav[31] utilizationCountIdleState 32
scalar OsgEarthNet.uav[31] utilizationFail 0
scalar OsgEarthNet.uav[31] simulationTime 259200
scalar OsgEarthNet.uav[32] utilizationSecMission 41398.275557437
scalar OsgEarthNet.uav[32] utilizationSecMaintenance 17241.967206797
scalar OsgEarthNet.uav[32] utilizationSecCharge 198260.33088848
scalar OsgEarthNet.uav[32] utilizationSecIdle 2299.4253472904
scalar OsgEarthNet.uav[32] utilizationEnergyMission 201688.23284531
scalar OsgEarthNet.uav[32] utilizationEnergyMaintenance 79423.985774994
scalar OsgEarthNet.uav[32] utilizationEnergyCharge 279940.5871582
scalar OsgEarthNet.uav[32] utilizationEnergyOverdrawMission 0
scalar OsgEarthNet.uav[32] utilizationEnergyOverdrawMaintenance 0
scalar OsgEarthNet.uav[32] utilizationCountMissions 61
scalar OsgEarthNet.uav[32] utilizationCountManeuversMission 1201
scalar OsgEarthNet.uav[32] utilizationCountManeuversMaintenance 122
scalar OsgEarthNet.uav[32] utilizationCountChargeState 61
scalar OsgEarthNet.uav[32] utilizationCountOverdrawnAfterMission 0
scalar OsgEarthNet.uav[32] utilizationCountIdleState 8
scalar OsgEarthNet.uav[32] utilizationFail 0
scalar OsgEarthNet.uav[32] simulationTime 259200
scalar OsgEarthNet.uav[33] utilizationSecMission 12125.001220642
scalar OsgEarthNet.uav[33] utilizationSecMaintenance 7623.9026694616
scalar OsgEarthNet.uav[33] utilizationSecCharge 73600
scalar OsgEarthNet.uav[33] utilizationSecIdle 165851.0951099
scalar OsgEarthNet.uav[33] utilizationEnergyMission 58581.217437744
scalar OsgEarthNet.uav[33] utilizationEnergyMaintenance 36159.960536957
scalar OsgEarthNet.uav[33] utilizationEnergyCharge 94855.694824219
scalar OsgEarthNet.uav[33] utilizationEnergyOverdrawMission 0
scalar OsgEarthNet.uav[33] utilizationEnergyOverdrawMaintenance 0
scalar OsgEarthNet.uav[33] utilizationCountMissions 21
scalar OsgEarthNet.uav[33] utilizationCountManeuversMission 398
scalar OsgEarthNet.uav[33] utilizationCountManeuversMaintenance 42
scalar OsgEarthNet.uav[33] utilizationCountChargeState 21
scalar OsgEarthNet.uav[33] utilizationCountOverdrawnAfterMission 0
scalar OsgEarthNet.uav[33] utilizationCountIdleState 22
scalar OsgEarthNet.uav[33] utilizationFail 0
scalar OsgEarthNet.uav[33] simulationTime 259200
scalar OsgEarthNet.uav[34] utilizationSecMission 13445.318721715
scalar OsgEarthNet.uav[34] utilizationSecMaintenance 10444.280158458
scalar OsgEarthNet.uav[34] utilizationSecCharge 96020
scalar OsgEarthNet.uav[34] utilizationSecIdle 139290.40011983
scalar OsgEarthNet.uav[34] utilizationEnergyMission 65216.700565338
scalar OsgEarthNet.uav[34] utilizationEnergyMaintenance 49838.758586884
scalar OsgEarthNet.uav[34] utilizationEnergyCharge 115344.56640625
scalar OsgEarthNet.uav[34] utilizationEnergyOverdrawMission 0
scalar OsgEarthNet.uav[34] utilizationEnergyOverdrawMaintenance 0
scalar OsgEarthNet.uav[34] utilizationCountMissions 32
scalar OsgEarthNet.uav[34] utilizationCountManeuversMission 432
scalar OsgEarthNet.uav[34] utilizationCountManeuversMaintenance 64
scalar OsgEarthNet.uav[34] utilizationCountChargeState 32
scalar OsgEarthNet.uav[34] utilizationCountOverdrawnAfterMission 0
scalar OsgEarthNet.uav[34] utilizationCountIdleState 33
scalar OsgEarthNet.uav[34] utilizationFail 0
scalar OsgEarthNet.uav[34] simulationTime 259200
scalar OsgEarthNet.uav[35] utilizationSecMission 41636.261203928
scalar OsgEarthNet.uav[35] utilizationSecMaintenance 18024.546845567
scalar OsgEarthNet.uav[35] utilizationSecCharge 197864.69300933
scalar OsgEarthNet.uav[35] utilizationSecIdle 1674.4979411756
scalar OsgEarthNet.uav[35] utilizationEnergyMission 203009.73589325
scalar OsgEarthNet.uav[35] utilizationEnergyMaintenance 82722.027729034
scalar OsgEarthNet.uav[35] utilizationEnergyCharge 281543.51477051
scalar OsgEarthNet.uav[35] utilizationEnergyOverdrawMission 0
scalar OsgEarthNet.uav[35] utilizationEnergyOverdrawMaintenance 0
scalar OsgEarthNet.uav[35] utilizationCountMissions 62
scalar OsgEarthNet.uav[35] utilizationCountManeuversMission 1310
scalar OsgEarthNet.uav[35] utilizationCountManeuversMaintenance 124
scalar OsgEarthNet.uav[35] utilizationCountChargeState 62
scalar OsgEarthNet.uav[35] utilizationCountOverdrawnAfterMission 0
scalar OsgEarthNet.uav[35] utilizationCountIdleState 10
scalar OsgEarthNet.uav[35] utilizationFail 0
scalar OsgEarthNet.uav[35] simulationTime 259200
scalar OsgEarthNet.uav[36] utilizationSecMission 12795.368334472
scalar OsgEarthNet.uav[36] utilizationSecMaintenance 7638.1102339911
scalar OsgEarthNet.uav[36] utilizationSecCharge 76480
scalar OsgEarthNet.uav[36] utilizationSecIdle 162286.52043154
scalar OsgEarthNet.uav[36] utilizationEnergyMission 61886.176609039
scalar OsgEarthNet.uav[36] utilizationEnergyMaintenance 36484.395175934
scalar OsgEarthNet.uav[36] utilizationEnergyCharge 98138.470703125
scalar OsgEarthNet.uav[36] utilizationEnergyOverdrawMission 0
scalar OsgEarthNet.uav[36] utilizationEnergyOverdrawMaintenance 0
scalar OsgEarthNet.uav[36] utilizationCountMissions 22
scalar OsgEarthNet.uav[36] utilizationCountManeuversMission 410
scalar OsgEarthNet.uav[36] utilizationCountManeuversMaintenance 44
scalar OsgEarthNet.uav[36] utilizationCountChargeState 22
scalar OsgEarthNet.uav[36] utilizationCountOverdrawnAfterMission 0
scalar OsgEarthNet.uav[36] utilizationCountIdleState 23
scalar OsgEarthNet.uav[36] utilizationFail 0
scalar OsgEarthNet.uav[36] simulationTime 259200
scalar OsgEarthNet.uav[37] utilizationSecMission 19816.61477722
scalar OsgEarthNet.uav[37] utilizationSecMaintenance 14493.564132
scalar OsgEarthNet.uav[37] utilizationSecCharge 135145.20820126
scalar OsgEarthNet.uav[37] utilizationSecIdle 89744.611889516
scalar OsgEarthNet.uav[37] utilizationEnergyMission 97154.057685852
scalar OsgEarthNet.uav[37] utilizationEnergyMaintenance 68799.840919495
scalar OsgEarthNet.uav[37] utilizationEnergyCharge 164267.25073242
scalar OsgEarthNet.uav[37] utilizationEnergyOverdrawMission 0
scalar OsgEarthNet.uav[37] utilizationEnergyOverdrawMaintenance 0
scalar OsgEarthNet.uav[37] utilizationCountMissions 45
scalar OsgEarthNet.uav[37] utilizationCountManeuversMission 587
scalar OsgEarthNet.uav[37] utilizationCountManeuversMaintenance 90
scalar OsgEarthNet.uav[37] utilizationCountChargeState 45
scalar OsgEarthNet.uav[37] utilizationCountOverdrawnAfterMission 0
scalar OsgEarthNet.uav[37] utilizationCountIdleState 45
scalar OsgEarthNet.uav[37] utilizationFail 0
scalar OsgEarthNet.uav[37] simulationTime 259200
scalar OsgEarthNet.uav[38] utilizationSecMission 41216.582471898
scalar OsgEarthNet.uav[38] utilizationSecMaintenance 17797.195885247
scalar OsgEarthNet.uav[38] utilizationSecCharge 196316.76229477
scalar OsgEarthNet.uav[38] utilizationSecIdle 3869.4583480894
scalar OsgEarthNet.uav[38] utilizationEnergyMission 198002.48633194
scalar OsgEarthNet.uav[38] utilizationEnergyMaintenance 82493.619392395
scalar OsgEarthNet.uav[38] utilizationEnergyCharge 280675.66748047
scalar OsgEarthNet.uav[38] utilizationEnergyOverdrawMission 0
scalar OsgEarthNet.uav[38] utilizationEnergyOverdrawMaintenance 0
scalar OsgEarthNet.uav[38] utilizationCountMissions 61
scalar OsgEarthNet.uav[38] utilizationCountManeuversMission 1245
scalar OsgEarthNet.uav[38] utilizationCountManeuversMaintenance 122
scalar OsgEarthNet.uav[38] utilizationCountChargeState 61
scalar OsgEarthNet.uav[38] utilizationCountOverdrawnAfterMission 0
scalar OsgEarthNet.uav[38] utilizationCountIdleState 9
scalar OsgEarthNet.uav[38] utilizationFail 0
scalar OsgEarthNet.uav[38] simulationTime 259200
scalar OsgEarthNet.uav[39] utilizationSecMission 14166.360600882
scalar OsgEarthNet.uav[39] utilizationSecMaintenance 8192.3092979598
scalar OsgEarthNet.uav[39] utilizationSecCharge 83730
scalar OsgEarthNet.uav[39] utilizationSecIdle 153111.32910116
scalar OsgEarthNet.uav[39] utilizationEnergyMission 68889.02835083
scalar OsgEarthNet.uav[39] utilizationEnergyMaintenance 38843.964672089
scalar OsgEarthNet.uav[39] utilizationEnergyCharge 107771.03857422
scalar OsgEarthNet.uav[39] utilizationEnergyOverdrawMission 0
scalar OsgEarthNet.uav[39] utilizationEnergyOverdrawMaintenance 0
scalar OsgEarthNet.uav[39] utilizationCountMissions 24
scalar OsgEarthNet.uav[39] utilizationCountManeuversMission 431
scalar OsgEarthNet.uav[39] utilizationCountManeuversMaintenance 48
scalar OsgEarthNet.uav[39] utilizationCountChargeState 24
scalar OsgEarthNet.uav[39] utilizationCountOverdrawnAfterMission 0
scalar OsgEarthNet.uav[39] utilizationCountIdleState 25
scalar OsgEarthNet.uav[39] utilizationFail 0
scalar OsgEarthNet.uav[39] simulationTime 259200
scalar OsgEarthNet.uav[40] utilizationSecMission 15213.303965229
scalar OsgEarthNet.uav[40] utilizationSecMaintenance 10310.119630952
scalar OsgEarthNet.uav[40] utilizationSecCharge 95290
scalar OsgEarthNet.uav[40] utilizationSecIdle 138386.57540382
scalar OsgEarthNet.uav[40] utilizationEnergyMission 75409.909153426
scalar OsgEarthNet.uav[40] utilizationEnergyMaintenance 49361.355770111
scalar OsgEarthNet.uav[40] utilizationEnergyCharge 123207.90576172
scalar OsgEarthNet.uav[40] utilizationEnergyOverdrawMission 0
scalar OsgEarthNet.uav[40] utilizationEnergyOverdrawMaintenance 0
scalar OsgEarthNet.uav[40] utilizationCountMissions 27
scalar OsgEarthNet.uav[40] utilizationCountManeuversMission 522
scalar OsgEarthNet.uav[40] utilizationCountManeuversMaintenance 55
scalar OsgEarthNet.uav[40] utilizationCountChargeState 27
scalar OsgEarthNet.uav[40] utilizationCountOverdrawnAfterMission 0
scalar OsgEarthNet.uav[40] utilizationCountIdleState 28
scalar OsgEarthNet.uav[40] utilizationFail 0
scalar OsgEarthNet.uav[40] simulationTime 259200
scalar OsgEarthNet.uav[41] utilizationSecMission 17456.201177494
scalar OsgEarthNet.uav[41] utilizationSecMaintenance 12006.609743433
scalar OsgEarthNet.uav[41] utilizationSecCharge 114322.40781237
scalar OsgEarthNet.uav[41] utilizationSecIdle 115414.7802667
scalar OsgEarthNet.uav[41] utilizationEnergyMission 84447.824630737
scalar OsgEarthNet.uav[41] utilizationEnergyMaintenance 57012.234352112
scalar OsgEarthNet.uav[41] utilizationEnergyCharge 140975.70532227
scalar OsgEarthNet.uav[41] utilizationEnergyOverdrawMission 0
scalar OsgEarthNet.uav[41] utilizationEnergyOverdrawMaintenance 0
scalar OsgEarthNet.uav[41] utilizationCountMissions 37
scalar OsgEarthNet.uav[41] utilizationCountManeuversMission 515
scalar OsgEarthNet.uav[41] utilizationCountManeuversMaintenance 74
scalar OsgEarthNet.uav[41] utilizationCountChargeState 37
scalar OsgEarthNet.uav[41] utilizationCountOverdrawnAfterMission 0
scalar OsgEarthNet.uav[41] utilizationCountIdleState 37
scalar OsgEarthNet.uav[41] utilizationFail 0
scalar OsgEarthNet.uav[41] simulationTime 259200
scalar OsgEarthNet.uav[42] utilizationSecMission 41507.513039174
scalar OsgEarthNet.uav[42] utilizationSecMaintenance 17439.7513082
scalar OsgEarthNet.uav[42] utilizationSecCharge 197223.10357196
scalar OsgEarthNet.uav[42] utilizationSecIdle 3029.6310806652
scalar OsgEarthNet.uav[42] utilizationEnergyMission 200127.50130463
scalar OsgEarthNet.uav[42] utilizationEnergyMaintenance 80345.937892914
scalar OsgEarthNet.uav[42] utilizationEnergyCharge 278290.96728516
scalar OsgEarthNet.uav[42] utilizationEnergyOverdrawMission 0
scalar OsgEarthNet.uav[42] utilizationEnergyOverdrawMaintenance 0
scalar OsgEarthNet.uav[42] utilizationCountMissions 61
scalar OsgEarthNet.uav[42] utilizationCountManeuversMission 1200
scalar OsgEarthNet.uav[42] utilizationCountManeuversMaintenance 122
scalar OsgEarthNet.uav[42] utilizationCountChargeState 61
scalar OsgEarthNet.uav[42] utilizationCountOverdrawnAfterMission 0
scalar OsgEarthNet.uav[42] utilizationCountIdleState 7
scalar OsgEarthNet.uav[42] utilizationFail 0
scalar OsgEarthNet.uav[42] simulationTime 259200
scalar OsgEarthNet.uav[43] utilizationSecMission 12443.750915482
scalar OsgEarthNet.uav[43] utilizationSecMaintenance 8852.5225126494
scalar OsgEarthNet.uav[43] utilizationSecCharge 80500
scalar OsgEarthNet.uav[43] utilizationSecIdle 157403.72557187
scalar OsgEarthNet.uav[43] utilizationEnergyMission 61049.577327728
scalar OsgEarthNet.uav[43] utilizationEnergyMaintenance 42093.110706329
scalar OsgEarthNet.uav[43] utilizationEnergyCharge 103966.36328125
scalar OsgEarthNet.uav[43] utilizationEnergyOverdrawMission 0
scalar OsgEarthNet.uav[43] utilizationEnergyOverdrawMaintenance 0
scalar OsgEarthNet.uav[43] utilizationCountMissions 23
scalar OsgEarthNet.uav[43] utilizationCountManeuversMission 466
scalar OsgEarthNet.uav[43] utilizationCountManeuversMaintenance 46
scalar OsgEarthNet.uav[43] utilizationCountChargeState 23
scalar OsgEarthNet.uav[43] utilizationCountOverdrawnAfterMission 0
scalar OsgEarthNet.uav[43] utilizationCountIdleState 24
scalar OsgEarthNet.uav[43] utilizationFail 0
scalar OsgEarthNet.uav[43] simulationTime 259200
scalar OsgEarthNet.uav[44] utilizationSecMission 18544.203051617
scalar OsgEarthNet.uav[44] utilizationSecMaintenance 13158.123896382
scalar OsgEarthNet.uav[44] utilizationSecCharge 123300
scalar OsgEarthNet.uav[44] utilizationSecIdle 104197.672052
scalar OsgEarthNet.uav[44] utilizationEnergyMission 91606.054416656
scalar OsgEarthNet.uav[44] utilizationEnergyMaintenance 62316.495155334
scalar OsgEarthNet.uav[44] utilizationEnergyCharge 153776.7434082
scalar OsgEarthNet.uav[44] utilizationEnergyOverdrawMission 0
scalar OsgEarthNet.uav[44] utilizationEnergyOverdrawMaintenance 0
scalar OsgEarthNet.uav[44] utilizationCountMissions 38
scalar OsgEarthNet.uav[44] utilizationCountManeuversMission 681
scalar OsgEarthNet.uav[44] utilizationCountManeuversMaintenance 76
scalar OsgEarthNet.uav[44] utilizationCountChargeState 38
scalar OsgEarthNet.uav[44] utilizationCountOverdrawnAfterMission 0
scalar OsgEarthNet.uav[44] utilizationCountIdleState 39
scalar OsgEarthNet.uav[44] utilizationFail 0
scalar OsgEarthNet.uav[44] simulationTime 259200
scalar OsgEarthNet.uav[45] utilizationSecMission 41950.614220788
scalar OsgEarthNet.uav[45] utilizationSecMaintenance 17610.165165296
scalar OsgEarthNet.uav[45] utilizationSecCharge 198040
scalar OsgEarthNet.uav[45] utilizationSecIdle 1599.2196139157
scalar OsgEarthNet.uav[45] utilizationEnergyMission 203034.15371166
scalar OsgEarthNet.uav[45] utilizationEnergyMaintenance 82537.555660248
scalar OsgEarthNet.uav[45] utilizationEnergyCharge 281515.27783203
scalar OsgEarthNet.uav[45] utilizationEnergyOverdrawMission 0
scalar OsgEarthNet.uav[45] utilizationEnergyOverdrawMaintenance 0
scalar OsgEarthNet.uav[45] utilizationCountMissions 61
scalar OsgEarthNet.uav[45] utilizationCountManeuversMission 1205
scalar OsgEarthNet.uav[45] utilizationCountManeuversMaintenance 123
scalar OsgEarthNet.uav[45] utilizationCountChargeState 61
scalar OsgEarthNet.uav[45] utilizationCountOverdrawnAfterMission 0
scalar OsgEarthNet.uav[45] utilizationCountIdleState 10
scalar OsgEarthNet.uav[45] utilizationFail 0
scalar OsgEarthNet.uav[45] simulationTime 259200
scalar OsgEarthNet.uav[46] utilizationSecMission 14583.125762901
scalar OsgEarthNet.uav[46] utilizationSecMaintenance 11343.926663611
scalar OsgEarthNet.uav[46] utilizationSecCharge 97300
scalar OsgEarthNet.uav[46] utilizationSecIdle 135972.94657349
scalar OsgEarthNet.uav[46] utilizationEnergyMission 73586.291046143
scalar OsgEarthNet.uav[46] utilizationEnergyMaintenance 53925.062850952
scalar OsgEarthNet.uav[46] utilizationEnergyCharge 125371.12744141
scalar OsgEarthNet.uav[46] utilizationEnergyOverdrawMission 0
scalar OsgEarthNet.uav[46] utilizationEnergyOverdrawMaintenance 0
scalar OsgEarthNet.uav[46] utilizationCountMissions 28
scalar OsgEarthNet.uav[46] utilizationCountManeuversMission 599
scalar OsgEarthNet.uav[46] utilizationCountManeuversMaintenance 56
scalar OsgEarthNet.uav[46] utilizationCountChargeState 28
scalar OsgEarthNet.uav[46] utilizationCountOverdrawnAfterMission 0
scalar OsgEarthNet.uav[46] utilizationCountIdleState 29
scalar OsgEarthNet.uav[46] utilizationFail 0
scalar OsgEarthNet.uav[46] simulationTime 259200
scalar OsgEarthNet.uav[47] utilizationSecMission 17946.242012886
scalar OsgEarthNet.uav[47] utilizationSecMaintenance 11886.849219667
scalar OsgEarthNet.uav[47] utilizationSecCharge 114980
scalar OsgEarthNet.uav[47] utilizationSecIdle 114386.90776745
scalar OsgEarthNet.uav[47] utilizationEnergyMission 86787.442287445
scalar OsgEarthNet.uav[47] utilizationEnergyMaintenance 56590.019119263
scalar OsgEarthNet.uav[47] utilizationEnergyCharge 143874.11816406
scalar OsgEarthNet.uav[47] utilizationEnergyOverdrawMission 0
scalar OsgEarthNet.uav[47] utilizationEnergyOverdrawMaintenance 0
scalar OsgEarthNet.uav[47] utilizationCountMissions 35
scalar OsgEarthNet.uav[47] utilizationCountManeuversMission 600
scalar OsgEarthNet.uav[47] utilizationCountManeuversMaintenance 70
scalar OsgEarthNet.uav[47] utilizationCountChargeState 35
scalar OsgEarthNet.uav[47] utilizationCountOverdrawnAfterMission 0
scalar OsgEarthNet.uav[47] utilizationCountIdleState 36
scalar OsgEarthNet.uav[47] utilizationFail 0
scalar OsgEarthNet.uav[47] simulationTime 259200
scalar OsgEarthNet.uav[48] utilizationSecMission 41916.228407773
scalar OsgEarthNet.uav[48] utilizationSecMaintenance 17094.141454815
scalar OsgEarthNet.uav[48] utilizationSecCharge 197632.17887338
scalar OsgEarthNet.uav[48] utilizationSecIdle 2557.4502640309
scalar OsgEarthNet.uav[48] utilizationEnergyMission 203566.61181259
scalar OsgEarthNet.uav[48] utilizationEnergyMaintenance 78484.647117615
scalar OsgEarthNet.uav[48] utilizationEnergyCharge 279696.50366211
scalar OsgEarthNet.uav[48] utilizationEnergyOverdrawMission 0
scalar OsgEarthNet.uav[48] utilizationEnergyOverdrawMaintenance 0
scalar OsgEarthNet.uav[48] utilizationCountMissions 61
scalar OsgEarthNet.uav[48] utilizationCountManeuversMission 1279
scalar OsgEarthNet.uav[48] utilizationCountManeuversMaintenance 122
scalar OsgEarthNet.uav[48] utilizationCountChargeState 61
scalar OsgEarthNet.uav[48] utilizationCountOverdrawnAfterMission 0
scalar OsgEarthNet.uav[48] utilizationCountIdleState 12
scalar OsgEarthNet.uav[48] utilizationFail 0
scalar OsgEarthNet.uav[48] simulationTime 259200
scalar OsgEarthNet.uav[49] utilizationSecMission 12826.356217694
scalar OsgEarthNet.uav[49] utilizationSecMaintenance 7808.3722021869
scalar OsgEarthNet.uav[49] utilizationSecCharge 77160
scalar OsgEarthNet.uav[49] utilizationSecIdle 161405.27058012
scalar OsgEarthNet.uav[49] utilizationEnergyMission 62031.54748969
scalar OsgEarthNet.uav[49] utilizationEnergyMaintenance 37162.109607696
scalar OsgEarthNet.uav[49] utilizationEnergyCharge 99242.420410156
scalar OsgEarthNet.uav[49] utilizationEnergyOverdrawMission 0
scalar OsgEarthNet.uav[49] utilizationEnergyOverdrawMaintenance 0
scalar OsgEarthNet.uav[49] utilizationCountMissions 22
scalar OsgEarthNet.uav[49] utilizationCountManeuversMission 404
scalar OsgEarthNet.uav[49] utilizationCountManeuversMaintenance 45
scalar OsgEarthNet.uav[49] utilizationCountChargeState 22
scalar OsgEarthNet.uav[49] utilizationCountOverdrawnAfterMission 0
scalar OsgEarthNet.uav[49] utilizationCountIdleState 23
scalar OsgEarthNet.uav[49] utilizationFail 0
scalar OsgEarthNet.uav[49] simulationTime 259200
scalar OsgEarthNet.uav[50] utilizationSecMission 19064.473642129
scalar OsgEarthNet.uav[50] utilizationSecMaintenance 8726.9501743531
scalar OsgEarthNet.uav[50] utilizationSecCharge 101825.94902273
scalar OsgEarthNet.uav[50] utilizationSecIdle 129582.62616079
scalar OsgEarthNet.uav[50] utilizationEnergyMission 91532.698436737
scalar OsgEarthNet.uav[50] utilizationEnergyMaintenance 41618.978145599
scalar OsgEarthNet.uav[50] utilizationEnergyCharge 132273.47412109
scalar OsgEarthNet.uav[50] utilizationEnergyOverdrawMission 0
scalar OsgEarthNet.uav[50] utilizationEnergyOverdrawMaintenance 0
scalar OsgEarthNet.uav[50] utilizationCountMissions 29
scalar OsgEarthNet.uav[50] utilizationCountManeuversMission 483
scalar OsgEarthNet.uav[50] utilizationCountManeuversMaintenance 58
scalar OsgEarthNet.uav[50] utilizationCountChargeState 29
scalar OsgEarthNet.uav[50] utilizationCountOverdrawnAfterMission 0
scalar OsgEarthNet.uav[50] utilizationCountIdleState 29
scalar OsgEarthNet.uav[50] utilizationFail 0
scalar OsgEarthNet.uav[50] simulationTime 259200
scalar OsgEarthNet.uav[51] utilizationSecMission 19775.847975733
scalar OsgEarthNet.uav[51] utilizationSecMaintenance 14166.834942436
scalar OsgEarthNet.uav[51] utilizationSecCharge 131330
scalar OsgEarthNet.uav[51] utilizationSecIdle 93927.316081831
scalar OsgEarthNet.uav[51] utilizationEnergyMission 96209.630424405
scalar OsgEarthNet.uav[51] utilizationEnergyMaintenance 67191.761283874
scalar OsgEarthNet.uav[51] utilizationEnergyCharge 162668.97680664
scalar OsgEarthNet.uav[51] utilizationEnergyOverdrawMission 0
scalar OsgEarthNet.uav[51] utilizationEnergyOverdrawMaintenance 0
scalar OsgEarthNet.uav[51] utilizationCountMissions 41
scalar OsgEarthNet.uav[51] utilizationCountManeuversMission 706
scalar OsgEarthNet.uav[51] utilizationCountManeuversMaintenance 83
scalar OsgEarthNet.uav[51] utilizationCountChargeState 41
scalar OsgEarthNet.uav[51] utilizationCountOverdrawnAfterMission 0
scalar OsgEarthNet.uav[51] utilizationCountIdleState 42
scalar OsgEarthNet.uav[51] utilizationFail 0
scalar OsgEarthNet.uav[51] simulationTime 259200
scalar OsgEarthNet.uav[52] utilizationSecMission 41426.423553722
scalar OsgEarthNet.uav[52] utilizationSecMaintenance 16580.097604832
scalar OsgEarthNet.uav[52] utilizationSecCharge 196331.47184145
scalar OsgEarthNet.uav[52] utilizationSecIdle 4862.006
scalar OsgEarthNet.uav[52] utilizationEnergyMission 197676.48815918
scalar OsgEarthNet.uav[52] utilizationEnergyMaintenance 76152.799194336
scalar OsgEarthNet.uav[52] utilizationEnergyCharge 276390.88330078
scalar OsgEarthNet.uav[52] utilizationEnergyOverdrawMission 0
scalar OsgEarthNet.uav[52] utilizationEnergyOverdrawMaintenance 0
scalar OsgEarthNet.uav[52] utilizationCountMissions 60
scalar OsgEarthNet.uav[52] utilizationCountManeuversMission 1191
scalar OsgEarthNet.uav[52] utilizationCountManeuversMaintenance 120
scalar OsgEarthNet.uav[52] utilizationCountChargeState 60
scalar OsgEarthNet.uav[52] utilizationCountOverdrawnAfterMission 0
scalar OsgEarthNet.uav[52] utilizationCountIdleState 15
scalar OsgEarthNet.uav[52] utilizationFail 0
scalar OsgEarthNet.uav[52] simulationTime 259200
scalar OsgEarthNet.uav[53] utilizationSecMission 15626.876678383
scalar OsgEarthNet.uav[53] utilizationSecMaintenance 9545.7564804197
scalar OsgEarthNet.uav[53] utilizationSecCharge 95340
scalar OsgEarthNet.uav[53] utilizationSecIdle 138687.3658412
scalar OsgEarthNet.uav[53] utilizationEnergyMission 75537.94165802
scalar OsgEarthNet.uav[53] utilizationEnergyMaintenance 45254.706363678
scalar OsgEarthNet.uav[53] utilizationEnergyCharge 123341.49023438
scalar OsgEarthNet.uav[53] utilizationEnergyOverdrawMission 0
scalar OsgEarthNet.uav[53] utilizationEnergyOverdrawMaintenance 0
scalar OsgEarthNet.uav[53] utilizationCountMissions 27
scalar OsgEarthNet.uav[53] utilizationCountManeuversMission 495
scalar OsgEarthNet.uav[53] utilizationCountManeuversMaintenance 54
scalar OsgEarthNet.uav[53] utilizationCountChargeState 27
scalar OsgEarthNet.uav[53] utilizationCountOverdrawnAfterMission 0
scalar OsgEarthNet.uav[53] utilizationCountIdleState 28
scalar OsgEarthNet.uav[53] utilizationFail 0
scalar OsgEarthNet.uav[53] simulationTime 259200
scalar OsgEarthNet.uav[54] utilizationSecMission 21172.344475756
scalar OsgEarthNet.uav[54] utilizationSecMaintenance 14103.062416813
scalar OsgEarthNet.uav[54] utilizationSecCharge 135227.18221608
scalar OsgEarthNet.uav[54] utilizationSecIdle 88697.40989135
scalar OsgEarthNet.uav[54] utilizationEnergyMission 104057.1490593
scalar OsgEarthNet.uav[54] utilizationEnergyMaintenance 66812.692874908
scalar OsgEarthNet.uav[54] utilizationEnergyCharge 169364.22949219
scalar OsgEarthNet.uav[54] utilizationEnergyOverdrawMission 0
scalar OsgEarthNet.uav[54] utilizationEnergyOverdrawMaintenance 0
scalar OsgEarthNet.uav[54] utilizationCountMissions 42
scalar OsgEarthNet.uav[54] utilizationCountManeuversMission 694
scalar OsgEarthNet.uav[54] utilizationCountManeuversMaintenance 84
scalar OsgEarthNet.uav[54] utilizationCountChargeState 42
scalar OsgEarthNet.uav[54] utilizationCountOverdrawnAfterMission 0
scalar OsgEarthNet.uav[54] utilizationCountIdleState 42
scalar OsgEarthNet.uav[54] utilizationFail 0
scalar OsgEarthNet.uav[54] simulationTime 259200
scalar OsgEarthNet.uav[55] utilizationSecMission 42569.09626156
scalar OsgEarthNet.uav[55] utilizationSecMaintenance 17212.602711993
scalar OsgEarthNet.uav[55] utilizationSecCharge 197076.84706773
scalar OsgEarthNet.uav[55] utilizationSecIdle 2341.4529587171
scalar OsgEarthNet.uav[55] utilizationEnergyMission 202004.13272476
scalar OsgEarthNet.uav[55] utilizationEnergyMaintenance 79606.47681427
scalar OsgEarthNet.uav[55] utilizationEnergyCharge 278103.07813263
scalar OsgEarthNet.uav[55] utilizationEnergyOverdrawMission 0
scalar OsgEarthNet.uav[55] utilizationEnergyOverdrawMaintenance 0
scalar OsgEarthNet.uav[55] utilizationCountMissions 61
scalar OsgEarthNet.uav[55] utilizationCountManeuversMission 1097
scalar OsgEarthNet.uav[55] utilizationCountManeuversMaintenance 122
scalar OsgEarthNet.uav[55] utilizationCountChargeState 61
scalar OsgEarthNet.uav[55] utilizationCountOverdrawnAfterMission 0
scalar OsgEarthNet.uav[55] utilizationCountIdleState 10
scalar OsgEarthNet.uav[55] utilizationFail 0
scalar OsgEarthNet.uav[55] simulationTime 259200
scalar OsgEarthNet.uav[56] utilizationSecMission 18128.752136124
scalar OsgEarthNet.uav[56] utilizationSecMaintenance 10397.417076736
scalar OsgEarthNet.uav[56] utilizationSecCharge 104301.82578714
scalar OsgEarthNet.uav[56] utilizationSecIdle 126372.004
scalar OsgEarthNet.uav[56] utilizationEnergyMission 87327.730445862
scalar OsgEarthNet.uav[56] utilizationEnergyMaintenance 49765.727893829
scalar OsgEarthNet.uav[56] utilizationEnergyCharge 135849.29785156
scalar OsgEarthNet.uav[56] utilizationEnergyOverdrawMission 0
scalar OsgEarthNet.uav[56] utilizationEnergyOverdrawMaintenance 0
scalar OsgEarthNet.uav[56] utilizationCountMissions 30
scalar OsgEarthNet.uav[56] utilizationCountManeuversMission 542
scalar OsgEarthNet.uav[56] utilizationCountManeuversMaintenance 60
scalar OsgEarthNet.uav[56] utilizationCountChargeState 30
scalar OsgEarthNet.uav[56] utilizationCountOverdrawnAfterMission 0
scalar OsgEarthNet.uav[56] utilizationCountIdleState 30
scalar OsgEarthNet.uav[56] utilizationFail 0
scalar OsgEarthNet.uav[56] simulationTime 259200
scalar OsgEarthNet.uav[57] utilizationSecMission 17623.005710736
scalar OsgEarthNet.uav[57] utilizationSecMaintenance 12026.973015119
scalar OsgEarthNet.uav[57] utilizationSecCharge 113690
scalar OsgEarthNet.uav[57] utilizationSecIdle 115860.02027414
scalar OsgEarthNet.uav[57] utilizationEnergyMission 85317.752925873
scalar OsgEarthNet.uav[57] utilizationEnergyMaintenance 57326.867765414
scalar OsgEarthNet.uav[57] utilizationEnergyCharge 138648.23413086
scalar OsgEarthNet.uav[57] utilizationEnergyOverdrawMission 0
scalar OsgEarthNet.uav[57] utilizationEnergyOverdrawMaintenance 0
scalar OsgEarthNet.uav[57] utilizationCountMissions 38
scalar OsgEarthNet.uav[57] utilizationCountManeuversMission 508
scalar OsgEarthNet.uav[57] utilizationCountManeuversMaintenance 76
scalar OsgEarthNet.uav[57] utilizationCountChargeState 37
scalar OsgEarthNet.uav[57] utilizationCountOverdrawnAfterMission 0
scalar OsgEarthNet.uav[57] utilizationCountIdleState 38
scalar OsgEarthNet.uav[57] utilizationFail 0
scalar OsgEarthNet.uav[57] simulationTime 259200
scalar OsgEarthNet.uav[58] utilizationSecMission 41709.155894857
scalar OsgEarthNet.uav[58] utilizationSecMaintenance 17157.027451747
scalar OsgEarthNet.uav[58] utilizationSecCharge 195791.8086534
scalar OsgEarthNet.uav[58] utilizationSecIdle 4542.007
scalar OsgEarthNet.uav[58] utilizationEnergyMission 200658.69073486
scalar OsgEarthNet.uav[58] utilizationEnergyMaintenance 79241.368614197
scalar OsgEarthNet.uav[58] utilizationEnergyCharge 275495.64501953
scalar OsgEarthNet.uav[58] utilizationEnergyOverdrawMission 0
scalar OsgEarthNet.uav[58] utilizationEnergyOverdrawMaintenance 0
scalar OsgEarthNet.uav[58] utilizationCountMissions 61
scalar OsgEarthNet.uav[58] utilizationCountManeuversMission 1195
scalar OsgEarthNet.uav[58] utilizationCountManeuversMaintenance 122
scalar OsgEarthNet.uav[58] utilizationCountChargeState 61
scalar OsgEarthNet.uav[58] utilizationCountOverdrawnAfterMission 0
scalar OsgEarthNet.uav[58] utilizationCountIdleState 10
scalar OsgEarthNet.uav[58] utilizationFail 0
scalar OsgEarthNet.uav[58] simulationTime 259200
scalar OsgEarthNet.uav[59] utilizationSecMission 20082.279654226
scalar OsgEarthNet.uav[59] utilizationSecMaintenance 12632.175004298
scalar OsgEarthNet.uav[59] utilizationSecCharge 121513.54434148
scalar OsgEarthNet.uav[59] utilizationSecIdle 104972
scalar OsgEarthNet.uav[59] utilizationEnergyMission 99763.628204346
scalar OsgEarthNet.uav[59] utilizationEnergyMaintenance 59511.645328522
scalar OsgEarthNet.uav[59] utilizationEnergyCharge 157726.93139648
scalar OsgEarthNet.uav[59] utilizationEnergyOverdrawMission 0
scalar OsgEarthNet.uav[59] utilizationEnergyOverdrawMaintenance 0
scalar OsgEarthNet.uav[59] utilizationCountMissions 35
scalar OsgEarthNet.uav[59] utilizationCountManeuversMission 682
scalar OsgEarthNet.uav[59] utilizationCountManeuversMaintenance 69
scalar OsgEarthNet.uav[59] utilizationCountChargeState 35
scalar OsgEarthNet.uav[59] utilizationCountOverdrawnAfterMission 0
scalar OsgEarthNet.uav[59] utilizationCountIdleState 35
scalar OsgEarthNet.uav[59] utilizationFail 0
scalar OsgEarthNet.uav[59] simulationTime 259200
scalar OsgEarthNet.uav[60] utilizationSecMission 17337.868944793
scalar OsgEarthNet.uav[60] utilizationSecMaintenance 9877.8535784813
scalar OsgEarthNet.uav[60] utilizationSecCharge 98972.271476726
scalar OsgEarthNet.uav[60] utilizationSecIdle 133012.005
scalar OsgEarthNet.uav[60] utilizationEnergyMission 84696.836788178
scalar OsgEarthNet.uav[60] utilizationEnergyMaintenance 46812.125453949
scalar OsgEarthNet.uav[60] utilizationEnergyCharge 127787.92156982
scalar OsgEarthNet.uav[60] utilizationEnergyOverdrawMission 0
scalar OsgEarthNet.uav[60] utilizationEnergyOverdrawMaintenance 0
scalar OsgEarthNet.uav[60] utilizationCountMissions 29
scalar OsgEarthNet.uav[60] utilizationCountManeuversMission 533
scalar OsgEarthNet.uav[60] utilizationCountManeuversMaintenance 58
scalar OsgEarthNet.uav[60] utilizationCountChargeState 29
scalar OsgEarthNet.uav[60] utilizationCountOverdrawnAfterMission 0
scalar OsgEarthNet.uav[60] utilizationCountIdleState 29
scalar OsgEarthNet.uav[60] utilizationFail 0
scalar OsgEarthNet.uav[60] simulationTime 259200
scalar OsgEarthNet.uav[61] utilizationSecMission 19160.966749467
scalar OsgEarthNet.uav[61] utilizationSecMaintenance 13875.958561241
scalar OsgEarthNet.uav[61] utilizationSecCharge 130280
scalar OsgEarthNet.uav[61] utilizationSecIdle 95883.073689291
scalar OsgEarthNet.uav[61] utilizationEnergyMission 93116.722148895
scalar OsgEarthNet.uav[61] utilizationEnergyMaintenance 65771.430210114
scalar OsgEarthNet.uav[61] utilizationEnergyCharge 159130.83178711
scalar OsgEarthNet.uav[61] utilizationEnergyOverdrawMission 0
scalar OsgEarthNet.uav[61] utilizationEnergyOverdrawMaintenance 0
scalar OsgEarthNet.uav[61] utilizationCountMissions 42
scalar OsgEarthNet.uav[61] utilizationCountManeuversMission 636
scalar OsgEarthNet.uav[61] utilizationCountManeuversMaintenance 84
scalar OsgEarthNet.uav[61] utilizationCountChargeState 42
scalar OsgEarthNet.uav[61] utilizationCountOverdrawnAfterMission 0
scalar OsgEarthNet.uav[61] utilizationCountIdleState 43
scalar OsgEarthNet.uav[61] utilizationFail 0
scalar OsgEarthNet.uav[61] simulationTime 259200
scalar OsgEarthNet.uav[62] utilizationSecMission 41325.60228119
scalar OsgEarthNet.uav[62] utilizationSecMaintenance 17369.845099643
scalar OsgEarthNet.uav[62] utilizationSecCharge 198202.54961917
scalar OsgEarthNet.uav[62] utilizationSecIdle 2302.002
scalar OsgEarthNet.uav[62] utilizationEnergyMission 200396.98265076
scalar OsgEarthNet.uav[62] utilizationEnergyMaintenance 79181.613292694
scalar OsgEarthNet.uav[62] utilizationEnergyCharge 279519.73291016
scalar OsgEarthNet.uav[62] utilizationEnergyOverdrawMission 0
scalar OsgEarthNet.uav[62] utilizationEnergyOverdrawMaintenance 0
scalar OsgEarthNet.uav[62] utilizationCountMissions 61
scalar OsgEarthNet.uav[62] utilizationCountManeuversMission 1166
scalar OsgEarthNet.uav[62] utilizationCountManeuversMaintenance 122
scalar OsgEarthNet.uav[62] utilizationCountChargeState 61
scalar OsgEarthNet.uav[62] utilizationCountOverdrawnAfterMission 0
scalar OsgEarthNet.uav[62] utilizationCountIdleState 9
scalar OsgEarthNet.uav[62] utilizationFail 0
scalar OsgEarthNet.uav[62] simulationTime 259200
scalar OsgEarthNet.uav[63] utilizationSecMission 20075.884411973
scalar OsgEarthNet.uav[63] utilizationSecMaintenance 14495.472782585
scalar OsgEarthNet.uav[63] utilizationSecCharge 129880
scalar OsgEarthNet.uav[63] utilizationSecIdle 94748.641805442
scalar OsgEarthNet.uav[63] utilizationEnergyMission 100066.32542801
scalar OsgEarthNet.uav[63] utilizationEnergyMaintenance 68652.265102386
scalar OsgEarthNet.uav[63] utilizationEnergyCharge 167376.88378906
scalar OsgEarthNet.uav[63] utilizationEnergyOverdrawMission 0
scalar OsgEarthNet.uav[63] utilizationEnergyOverdrawMaintenance 0
scalar OsgEarthNet.uav[63] utilizationCountMissions 37
scalar OsgEarthNet.uav[63] utilizationCountManeuversMission 765
scalar OsgEarthNet.uav[63] utilizationCountManeuversMaintenance 74
scalar OsgEarthNet.uav[63] utilizationCountChargeState 37
scalar OsgEarthNet.uav[63] utilizationCountOverdrawnAfterMission 0
scalar OsgEarthNet.uav[63] utilizationCountIdleState 38
scalar OsgEarthNet.uav[63] utilizationFail 0
scalar OsgEarthNet.uav[63] simulationTime 259200
scalar OsgEarthNet.uav[64] utilizationSecMission 20655.29230726
scalar OsgEarthNet.uav[64] utilizationSecMaintenance 13591.100544899
scalar OsgEarthNet.uav[64] utilizationSecCharge 131831.59814784
scalar OsgEarthNet.uav[64] utilizationSecIdle 93122.008
scalar OsgEarthNet.uav[64] utilizationEnergyMission 100531.3468399
scalar OsgEarthNet.uav[64] utilizationEnergyMaintenance 64898.320323944
scalar OsgEarthNet.uav[64] utilizationEnergyCharge 164843.33154297
scalar OsgEarthNet.uav[64] utilizationEnergyOverdrawMission 0
scalar OsgEarthNet.uav[64] utilizationEnergyOverdrawMaintenance 0
scalar OsgEarthNet.uav[64] utilizationCountMissions 41
scalar OsgEarthNet.uav[64] utilizationCountManeuversMission 646
scalar OsgEarthNet.uav[64] utilizationCountManeuversMaintenance 82
scalar OsgEarthNet.uav[64] utilizationCountChargeState 41
scalar OsgEarthNet.uav[64] utilizationCountOverdrawnAfterMission 0
scalar OsgEarthNet.uav[64] utilizationCountIdleState 41
scalar OsgEarthNet.uav[64] utilizationFail 0
scalar OsgEarthNet.uav[64] simulationTime 259200
scalar OsgEarthNet.uav[65] utilizationSecMission 40991.437896545
scalar OsgEarthNet.uav[65] utilizationSecMaintenance 17866.888054072
scalar OsgEarthNet.uav[65] utilizationSecCharge 197700
scalar OsgEarthNet.uav[65] utilizationSecIdle 2641.673049383
scalar OsgEarthNet.uav[65] utilizationEnergyMission 198685.96538994
[...]
scalar OsgEarthNet.uav[180] utilizationSecIdle 259199.999
scalar OsgEarthNet.uav[180] utilizationEnergyMission 0
scalar OsgEarthNet.uav[180] utilizationEnergyMaintenance 0
scalar OsgEarthNet.uav[180] utilizationEnergyCharge 0
scalar OsgEarthNet.uav[180] utilizationEnergyOverdrawMission 0
scalar OsgEarthNet.uav[180] utilizationEnergyOverdrawMaintenance 0
scalar OsgEarthNet.uav[180] utilizationCountMissions 0
scalar OsgEarthNet.uav[180] utilizationCountManeuversMission 0
scalar OsgEarthNet.uav[180] utilizationCountManeuversMaintenance 0
scalar OsgEarthNet.uav[180] utilizationCountChargeState 0
scalar OsgEarthNet.uav[180] utilizationCountOverdrawnAfterMission 0
scalar OsgEarthNet.uav[180] utilizationCountIdleState 1
scalar OsgEarthNet.uav[180] utilizationFail 0
scalar OsgEarthNet.uav[180] simulationTime 259200
scalar OsgEarthNet.uav[181] utilizationSecMission 0
scalar OsgEarthNet.uav[181] utilizationSecMaintenance 0
scalar OsgEarthNet.uav[181] utilizationSecCharge 0
scalar OsgEarthNet.uav[181] utilizationSecIdle 259199.999
scalar OsgEarthNet.uav[181] utilizationEnergyMission 0
scalar OsgEarthNet.uav[181] utilizationEnergyMaintenance 0
scalar OsgEarthNet.uav[181] utilizationEnergyCharge 0
scalar OsgEarthNet.uav[181] utilizationEnergyOverdrawMission 0
scalar OsgEarthNet.uav[181] utilizationEnergyOverdrawMaintenance 0
scalar OsgEarthNet.uav[181] utilizationCountMissions 0
scalar OsgEarthNet.uav[181] utilizationCountManeuversMission 0
scalar OsgEarthNet.uav[181] utilizationCountManeuversMaintenance 0
scalar OsgEarthNet.uav[181] utilizationCountChargeState 0
scalar OsgEarthNet.uav[181] utilizationCountOverdrawnAfterMission 0
scalar OsgEarthNet.uav[181] utilizationCountIdleState 1
scalar OsgEarthNet.uav[181] utilizationFail 0
scalar OsgEarthNet.uav[181] simulationTime 259200
scalar OsgEarthNet.uav[182] utilizationSecMission 0
scalar OsgEarthNet.uav[182] utilizationSecMaintenance 0
scalar OsgEarthNet.uav[182] utilizationSecCharge 0
scalar OsgEarthNet.uav[182] utilizationSecIdle 259199.999
scalar OsgEarthNet.uav[182] utilizationEnergyMission 0
scalar OsgEarthNet.uav[182] utilizationEnergyMaintenance 0
scalar OsgEarthNet.uav[182] utilizationEnergyCharge 0
scalar OsgEarthNet.uav[182] utilizationEnergyOverdrawMission 0
scalar OsgEarthNet.uav[182] utilizationEnergyOverdrawMaintenance 0
scalar OsgEarthNet.uav[182] utilizationCountMissions 0
scalar OsgEarthNet.uav[182] utilizationCountManeuversMission 0
scalar OsgEarthNet.uav[182] utilizationCountManeuversMaintenance 0
scalar OsgEarthNet.uav[182] utilizationCountChargeState 0
scalar OsgEarthNet.uav[182] utilizationCountOverdrawnAfterMission 0
scalar OsgEarthNet.uav[182] utilizationCountIdleState 1
scalar OsgEarthNet.uav[182] utilizationFail 0
scalar OsgEarthNet.uav[182] simulationTime 259200
scalar OsgEarthNet.uav[183] utilizationSecMission 0
scalar OsgEarthNet.uav[183] utilizationSecMaintenance 0
scalar OsgEarthNet.uav[183] utilizationSecCharge 0
scalar OsgEarthNet.uav[183] utilizationSecIdle 259199.999
scalar OsgEarthNet.uav[183] utilizationEnergyMission 0
scalar OsgEarthNet.uav[183] utilizationEnergyMaintenance 0
scalar OsgEarthNet.uav[183] utilizationEnergyCharge 0
scalar OsgEarthNet.uav[183] utilizationEnergyOverdrawMission 0
scalar OsgEarthNet.uav[183] utilizationEnergyOverdrawMaintenance 0
scalar OsgEarthNet.uav[183] utilizationCountMissions 0
scalar OsgEarthNet.uav[183] utilizationCountManeuversMission 0
scalar OsgEarthNet.uav[183] utilizationCountManeuversMaintenance 0
scalar OsgEarthNet.uav[183] utilizationCountChargeState 0
scalar OsgEarthNet.uav[183] utilizationCountOverdrawnAfterMission 0
scalar OsgEarthNet.uav[183] utilizationCountIdleState 1
scalar OsgEarthNet.uav[183] utilizationFail 0
scalar OsgEarthNet.uav[183] simulationTime 259200
scalar OsgEarthNet.uav[184] utilizationSecMission 0
scalar OsgEarthNet.uav[184] utilizationSecMaintenance 0
scalar OsgEarthNet.uav[184] utilizationSecCharge 0
scalar OsgEarthNet.uav[184] utilizationSecIdle 259199.999
scalar OsgEarthNet.uav[184] utilizationEnergyMission 0
scalar OsgEarthNet.uav[184] utilizationEnergyMaintenance 0
scalar OsgEarthNet.uav[184] utilizationEnergyCharge 0
scalar OsgEarthNet.uav[184] utilizationEnergyOverdrawMission 0
scalar OsgEarthNet.uav[184] utilizationEnergyOverdrawMaintenance 0
scalar OsgEarthNet.uav[184] utilizationCountMissions 0
scalar OsgEarthNet.uav[184] utilizationCountManeuversMission 0
scalar OsgEarthNet.uav[184] utilizationCountManeuversMaintenance 0
scalar OsgEarthNet.uav[184] utilizationCountChargeState 0
scalar OsgEarthNet.uav[184] utilizationCountOverdrawnAfterMission 0
scalar OsgEarthNet.uav[184] utilizationCountIdleState 1
scalar OsgEarthNet.uav[184] utilizationFail 0
scalar OsgEarthNet.uav[184] simulationTime 259200
scalar OsgEarthNet.uav[185] utilizationSecMission 0
scalar OsgEarthNet.uav[185] utilizationSecMaintenance 0
scalar OsgEarthNet.uav[185] utilizationSecCharge 0
scalar OsgEarthNet.uav[185] utilizationSecIdle 259199.999
scalar OsgEarthNet.uav[185] utilizationEnergyMission 0
scalar OsgEarthNet.uav[185] utilizationEnergyMaintenance 0
scalar OsgEarthNet.uav[185] utilizationEnergyCharge 0
scalar OsgEarthNet.uav[185] utilizationEnergyOverdrawMission 0
scalar OsgEarthNet.uav[185] utilizationEnergyOverdrawMaintenance 0
scalar OsgEarthNet.uav[185] utilizationCountMissions 0
scalar OsgEarthNet.uav[185] utilizationCountManeuversMission 0
scalar OsgEarthNet.uav[185] utilizationCountManeuversMaintenance 0
scalar OsgEarthNet.uav[185] utilizationCountChargeState 0
scalar OsgEarthNet.uav[185] utilizationCountOverdrawnAfterMission 0
scalar OsgEarthNet.uav[185] utilizationCountIdleState 1
scalar OsgEarthNet.uav[185] utilizationFail 0
scalar OsgEarthNet.uav[185] simulationTime 259200
scalar OsgEarthNet.uav[186] utilizationSecMission 0
scalar OsgEarthNet.uav[186] utilizationSecMaintenance 0
scalar OsgEarthNet.uav[186] utilizationSecCharge 0
scalar OsgEarthNet.uav[186] utilizationSecIdle 259199.999
scalar OsgEarthNet.uav[186] utilizationEnergyMission 0
scalar OsgEarthNet.uav[186] utilizationEnergyMaintenance 0
scalar OsgEarthNet.uav[186] utilizationEnergyCharge 0
scalar OsgEarthNet.uav[186] utilizationEnergyOverdrawMission 0
scalar OsgEarthNet.uav[186] utilizationEnergyOverdrawMaintenance 0
scalar OsgEarthNet.uav[186] utilizationCountMissions 0
scalar OsgEarthNet.uav[186] utilizationCountManeuversMission 0
scalar OsgEarthNet.uav[186] utilizationCountManeuversMaintenance 0
scalar OsgEarthNet.uav[186] utilizationCountChargeState 0
scalar OsgEarthNet.uav[186] utilizationCountOverdrawnAfterMission 0
scalar OsgEarthNet.uav[186] utilizationCountIdleState 1
scalar OsgEarthNet.uav[186] utilizationFail 0
scalar OsgEarthNet.uav[186] simulationTime 259200
scalar OsgEarthNet.uav[187] utilizationSecMission 0
scalar OsgEarthNet.uav[187] utilizationSecMaintenance 0
scalar OsgEarthNet.uav[187] utilizationSecCharge 0
scalar OsgEarthNet.uav[187] utilizationSecIdle 259199.999
scalar OsgEarthNet.uav[187] utilizationEnergyMission 0
scalar OsgEarthNet.uav[187] utilizationEnergyMaintenance 0
scalar OsgEarthNet.uav[187] utilizationEnergyCharge 0
scalar OsgEarthNet.uav[187] utilizationEnergyOverdrawMission 0
scalar OsgEarthNet.uav[187] utilizationEnergyOverdrawMaintenance 0
scalar OsgEarthNet.uav[187] utilizationCountMissions 0
scalar OsgEarthNet.uav[187] utilizationCountManeuversMission 0
scalar OsgEarthNet.uav[187] utilizationCountManeuversMaintenance 0
scalar OsgEarthNet.uav[187] utilizationCountChargeState 0
scalar OsgEarthNet.uav[187] utilizationCountOverdrawnAfterMission 0
scalar OsgEarthNet.uav[187] utilizationCountIdleState 1
scalar OsgEarthNet.uav[187] utilizationFail 0
scalar OsgEarthNet.uav[187] simulationTime 259200
scalar OsgEarthNet.uav[188] utilizationSecMission 0
scalar OsgEarthNet.uav[188] utilizationSecMaintenance 0
scalar OsgEarthNet.uav[188] utilizationSecCharge 0
scalar OsgEarthNet.uav[188] utilizationSecIdle 259199.999
scalar OsgEarthNet.uav[188] utilizationEnergyMission 0
scalar OsgEarthNet.uav[188] utilizationEnergyMaintenance 0
scalar OsgEarthNet.uav[188] utilizationEnergyCharge 0
scalar OsgEarthNet.uav[188] utilizationEnergyOverdrawMission 0
scalar OsgEarthNet.uav[188] utilizationEnergyOverdrawMaintenance 0
scalar OsgEarthNet.uav[188] utilizationCountMissions 0
scalar OsgEarthNet.uav[188] utilizationCountManeuversMission 0
scalar OsgEarthNet.uav[188] utilizationCountManeuversMaintenance 0
scalar OsgEarthNet.uav[188] utilizationCountChargeState 0
scalar OsgEarthNet.uav[188] utilizationCountOverdrawnAfterMission 0
scalar OsgEarthNet.uav[188] utilizationCountIdleState 1
scalar OsgEarthNet.uav[188] utilizationFail 0
scalar OsgEarthNet.uav[188] simulationTime 259200
scalar OsgEarthNet.uav[189] utilizationSecMission 0
scalar OsgEarthNet.uav[189] utilizationSecMaintenance 0
scalar OsgEarthNet.uav[189] utilizationSecCharge 0
scalar OsgEarthNet.uav[189] utilizationSecIdle 259199.999
scalar OsgEarthNet.uav[189] utilizationEnergyMission 0
scalar OsgEarthNet.uav[189] utilizationEnergyMaintenance 0
scalar OsgEarthNet.uav[189] utilizationEnergyCharge 0
scalar OsgEarthNet.uav[189] utilizationEnergyOverdrawMission 0
scalar OsgEarthNet.uav[189] utilizationEnergyOverdrawMaintenance 0
scalar OsgEarthNet.uav[189] utilizationCountMissions 0
scalar OsgEarthNet.uav[189] utilizationCountManeuversMission 0
scalar OsgEarthNet.uav[189] utilizationCountManeuversMaintenance 0
scalar OsgEarthNet.uav[189] utilizationCountChargeState 0
scalar OsgEarthNet.uav[189] utilizationCountOverdrawnAfterMission 0
scalar OsgEarthNet.uav[189] utilizationCountIdleState 1
scalar OsgEarthNet.uav[189] utilizationFail 0
scalar OsgEarthNet.uav[189] simulationTime 259200
scalar OsgEarthNet.uav[190] utilizationSecMission 0
scalar OsgEarthNet.uav[190] utilizationSecMaintenance 0
scalar OsgEarthNet.uav[190] utilizationSecCharge 0
scalar OsgEarthNet.uav[190] utilizationSecIdle 259199.999
scalar OsgEarthNet.uav[190] utilizationEnergyMission 0
scalar OsgEarthNet.uav[190] utilizationEnergyMaintenance 0
scalar OsgEarthNet.uav[190] utilizationEnergyCharge 0
scalar OsgEarthNet.uav[190] utilizationEnergyOverdrawMission 0
scalar OsgEarthNet.uav[190] utilizationEnergyOverdrawMaintenance 0
scalar OsgEarthNet.uav[190] utilizationCountMissions 0
scalar OsgEarthNet.uav[190] utilizationCountManeuversMission 0
scalar OsgEarthNet.uav[190] utilizationCountManeuversMaintenance 0
scalar OsgEarthNet.uav[190] utilizationCountChargeState 0
scalar OsgEarthNet.uav[190] utilizationCountOverdrawnAfterMission 0
scalar OsgEarthNet.uav[190] utilizationCountIdleState 1
scalar OsgEarthNet.uav[190] utilizationFail 0
scalar OsgEarthNet.uav[190] simulationTime 259200
scalar OsgEarthNet.uav[191] utilizationSecMission 0
scalar OsgEarthNet.uav[191] utilizationSecMaintenance 0
scalar OsgEarthNet.uav[191] utilizationSecCharge 0
scalar OsgEarthNet.uav[191] utilizationSecIdle 259199.999
scalar OsgEarthNet.uav[191] utilizationEnergyMission 0
scalar OsgEarthNet.uav[191] utilizationEnergyMaintenance 0
scalar OsgEarthNet.uav[191] utilizationEnergyCharge 0
scalar OsgEarthNet.uav[191] utilizationEnergyOverdrawMission 0
scalar OsgEarthNet.uav[191] utilizationEnergyOverdrawMaintenance 0
scalar OsgEarthNet.uav[191] utilizationCountMissions 0
scalar OsgEarthNet.uav[191] utilizationCountManeuversMission 0
scalar OsgEarthNet.uav[191] utilizationCountManeuversMaintenance 0
scalar OsgEarthNet.uav[191] utilizationCountChargeState 0
scalar OsgEarthNet.uav[191] utilizationCountOverdrawnAfterMission 0
scalar OsgEarthNet.uav[191] utilizationCountIdleState 1
scalar OsgEarthNet.uav[191] utilizationFail 0
scalar OsgEarthNet.uav[191] simulationTime 259200
scalar OsgEarthNet.uav[192] utilizationSecMission 0
scalar OsgEarthNet.uav[192] utilizationSecMaintenance 0
scalar OsgEarthNet.uav[192] utilizationSecCharge 0
scalar OsgEarthNet.uav[192] utilizationSecIdle 259199.999
scalar OsgEarthNet.uav[192] utilizationEnergyMission 0
scalar OsgEarthNet.uav[192] utilizationEnergyMaintenance 0
scalar OsgEarthNet.uav[192] utilizationEnergyCharge 0
scalar OsgEarthNet.uav[192] utilizationEnergyOverdrawMission 0
scalar OsgEarthNet.uav[192] utilizationEnergyOverdrawMaintenance 0
scalar OsgEarthNet.uav[192] utilizationCountMissions 0
scalar OsgEarthNet.uav[192] utilizationCountManeuversMission 0
scalar OsgEarthNet.uav[192] utilizationCountManeuversMaintenance 0
scalar OsgEarthNet.uav[192] utilizationCountChargeState 0
scalar OsgEarthNet.uav[192] utilizationCountOverdrawnAfterMission 0
scalar OsgEarthNet.uav[192] utilizationCountIdleState 1
scalar OsgEarthNet.uav[192] utilizationFail 0
scalar OsgEarthNet.uav[192] simulationTime 259200
scalar OsgEarthNet.uav[193] utilizationSecMission 0
scalar OsgEarthNet.uav[193] utilizationSecMaintenance 0
scalar OsgEarthNet.uav[193] utilizationSecCharge 0
scalar OsgEarthNet.uav[193] utilizationSecIdle 259199.999
scalar OsgEarthNet.uav[193] utilizationEnergyMission 0
scalar OsgEarthNet.uav[193] utilizationEnergyMaintenance 0
scalar OsgEarthNet.uav[193] utilizationEnergyCharge 0
scalar OsgEarthNet.uav[193] utilizationEnergyOverdrawMission 0
scalar OsgEarthNet.uav[193] utilizationEnergyOverdrawMaintenance 0
scalar OsgEarthNet.uav[193] utilizationCountMissions 0
scalar OsgEarthNet.uav[193] utilizationCountManeuversMission 0
scalar OsgEarthNet.uav[193] utilizationCountManeuversMaintenance 0
scalar OsgEarthNet.uav[193] utilizationCountChargeState 0
scalar OsgEarthNet.uav[193] utilizationCountOverdrawnAfterMission 0
scalar OsgEarthNet.uav[193] utilizationCountIdleState 1
scalar OsgEarthNet.uav[193] utilizationFail 0
scalar OsgEarthNet.uav[193] simulationTime 259200
scalar OsgEarthNet.uav[194] utilizationSecMission 0
scalar OsgEarthNet.uav[194] utilizationSecMaintenance 0
scalar OsgEarthNet.uav[194] utilizationSecCharge 0
scalar OsgEarthNet.uav[194] utilizationSecIdle 259199.999
scalar OsgEarthNet.uav[194] utilizationEnergyMission 0
scalar OsgEarthNet.uav[194] utilizationEnergyMaintenance 0
scalar OsgEarthNet.uav[194] utilizationEnergyCharge 0
scalar OsgEarthNet.uav[194] utilizationEnergyOverdrawMission 0
scalar OsgEarthNet.uav[194] utilizationEnergyOverdrawMaintenance 0
scalar OsgEarthNet.uav[194] utilizationCountMissions 0
scalar OsgEarthNet.uav[194] utilizationCountManeuversMission 0
scalar OsgEarthNet.uav[194] utilizationCountManeuversMaintenance 0
scalar OsgEarthNet.uav[194] utilizationCountChargeState 0
scalar OsgEarthNet.uav[194] utilizationCountOverdrawnAfterMission 0
scalar OsgEarthNet.uav[194] utilizationCountIdleState 1
scalar OsgEarthNet.uav[194] utilizationFail 0
scalar OsgEarthNet.uav[194] simulationTime 259200
scalar OsgEarthNet.uav[195] utilizationSecMission 0
scalar OsgEarthNet.uav[195] utilizationSecMaintenance 0
scalar OsgEarthNet.uav[195] utilizationSecCharge 0
scalar OsgEarthNet.uav[195] utilizationSecIdle 259199.999
scalar OsgEarthNet.uav[195] utilizationEnergyMission 0
scalar OsgEarthNet.uav[195] utilizationEnergyMaintenance 0
scalar OsgEarthNet.uav[195] utilizationEnergyCharge 0
scalar OsgEarthNet.uav[195] utilizationEnergyOverdrawMission 0
scalar OsgEarthNet.uav[195] utilizationEnergyOverdrawMaintenance 0
scalar OsgEarthNet.uav[195] utilizationCountMissions 0
scalar OsgEarthNet.uav[195] utilizationCountManeuversMission 0
scalar OsgEarthNet.uav[195] utilizationCountManeuversMaintenance 0
scalar OsgEarthNet.uav[195] utilizationCountChargeState 0
scalar OsgEarthNet.uav[195] utilizationCountOverdrawnAfterMission 0
scalar OsgEarthNet.uav[195] utilizationCountIdleState 1
scalar OsgEarthNet.uav[195] utilizationFail 0
scalar OsgEarthNet.uav[195] simulationTime 259200
scalar OsgEarthNet.uav[196] utilizationSecMission 0
scalar OsgEarthNet.uav[196] utilizationSecMaintenance 0
scalar OsgEarthNet.uav[196] utilizationSecCharge 0
scalar OsgEarthNet.uav[196] utilizationSecIdle 259199.999
scalar OsgEarthNet.uav[196] utilizationEnergyMission 0
scalar OsgEarthNet.uav[196] utilizationEnergyMaintenance 0
scalar OsgEarthNet.uav[196] utilizationEnergyCharge 0
scalar OsgEarthNet.uav[196] utilizationEnergyOverdrawMission 0
scalar OsgEarthNet.uav[196] utilizationEnergyOverdrawMaintenance 0
scalar OsgEarthNet.uav[196] utilizationCountMissions 0
scalar OsgEarthNet.uav[196] utilizationCountManeuversMission 0
scalar OsgEarthNet.uav[196] utilizationCountManeuversMaintenance 0
scalar OsgEarthNet.uav[196] utilizationCountChargeState 0
scalar OsgEarthNet.uav[196] utilizationCountOverdrawnAfterMission 0
scalar OsgEarthNet.uav[196] utilizationCountIdleState 1
scalar OsgEarthNet.uav[196] utilizationFail 0
scalar OsgEarthNet.uav[196] simulationTime 259200
scalar OsgEarthNet.uav[197] utilizationSecMission 0
scalar OsgEarthNet.uav[197] utilizationSecMaintenance 0
scalar OsgEarthNet.uav[197] utilizationSecCharge 0
scalar OsgEarthNet.uav[197] utilizationSecIdle 259199.999
scalar OsgEarthNet.uav[197] utilizationEnergyMission 0
scalar OsgEarthNet.uav[197] utilizationEnergyMaintenance 0
scalar OsgEarthNet.uav[197] utilizationEnergyCharge 0
scalar OsgEarthNet.uav[197] utilizationEnergyOverdrawMission 0
scalar OsgEarthNet.uav[197] utilizationEnergyOverdrawMaintenance 0
scalar OsgEarthNet.uav[197] utilizationCountMissions 0
scalar OsgEarthNet.uav[197] utilizationCountManeuversMission 0
scalar OsgEarthNet.uav[197] utilizationCountManeuversMaintenance 0
scalar OsgEarthNet.uav[197] utilizationCountChargeState 0
scalar OsgEarthNet.uav[197] utilizationCountOverdrawnAfterMission 0
scalar OsgEarthNet.uav[197] utilizationCountIdleState 1
scalar OsgEarthNet.uav[197] utilizationFail 0
scalar OsgEarthNet.uav[197] simulationTime 259200
scalar OsgEarthNet.uav[198] utilizationSecMission 0
scalar OsgEarthNet.uav[198] utilizationSecMaintenance 0
scalar OsgEarthNet.uav[198] utilizationSecCharge 0
scalar OsgEarthNet.uav[198] utilizationSecIdle 259199.999
scalar OsgEarthNet.uav[198] utilizationEnergyMission 0
scalar OsgEarthNet.uav[198] utilizationEnergyMaintenance 0
scalar OsgEarthNet.uav[198] utilizationEnergyCharge 0
scalar OsgEarthNet.uav[198] utilizationEnergyOverdrawMission 0
scalar OsgEarthNet.uav[198] utilizationEnergyOverdrawMaintenance 0
scalar OsgEarthNet.uav[198] utilizationCountMissions 0
scalar OsgEarthNet.uav[198] utilizationCountManeuversMission 0
scalar OsgEarthNet.uav[198] utilizationCountManeuversMaintenance 0
scalar OsgEarthNet.uav[198] utilizationCountChargeState 0
scalar OsgEarthNet.uav[198] utilizationCountOverdrawnAfterMission 0
scalar OsgEarthNet.uav[198] utilizationCountIdleState 1
scalar OsgEarthNet.uav[198] utilizationFail 0
scalar OsgEarthNet.uav[198] simulationTime 259200
scalar OsgEarthNet.uav[199] utilizationSecMission 0
scalar OsgEarthNet.uav[199] utilizationSecMaintenance 0
scalar OsgEarthNet.uav[199] utilizationSecCharge 0
scalar OsgEarthNet.uav[199] utilizationSecIdle 259199.999
scalar OsgEarthNet.uav[199] utilizationEnergyMission 0
scalar OsgEarthNet.uav[199] utilizationEnergyMaintenance 0
scalar OsgEarthNet.uav[199] utilizationEnergyCharge 0
scalar OsgEarthNet.uav[199] utilizationEnergyOverdrawMission 0
scalar OsgEarthNet.uav[199] utilizationEnergyOverdrawMaintenance 0
scalar OsgEarthNet.uav[199] utilizationCountMissions 0
scalar OsgEarthNet.uav[199] utilizationCountManeuversMission 0
scalar OsgEarthNet.uav[199] utilizationCountManeuversMaintenance 0
scalar OsgEarthNet.uav[199] utilizationCountChargeState 0
scalar OsgEarthNet.uav[199] utilizationCountOverdrawnAfterMission 0
scalar OsgEarthNet.uav[199] utilizationCountIdleState 1
scalar OsgEarthNet.uav[199] utilizationFail 0
scalar OsgEarthNet.uav[199] simulationTime 259200
scalar OsgEarthNet.cs[0] usedPower 3992923.1995128
scalar OsgEarthNet.cs[0] chargedPower 3992923.1995128
scalar OsgEarthNet.cs[0] chargedMobileNodes 877
scalar OsgEarthNet.cs[0] reservations 890
scalar OsgEarthNet.cs[1] usedPower 4153904.4602112
scalar OsgEarthNet.cs[1] chargedPower 4153904.4602112
scalar OsgEarthNet.cs[1] chargedMobileNodes 1037
scalar OsgEarthNet.cs[1] reservations 1051
scalar OsgEarthNet.cs[2] usedPower 8684600.962886
scalar OsgEarthNet.cs[2] chargedPower 8684600.962886
scalar OsgEarthNet.cs[2] chargedMobileNodes 270
scalar OsgEarthNet.cs[2] reservations 1900

