version 2
run Szenario_Hotel_Gabelbach-184-20180712-04:38:28-13188
attr configname Szenario_Hotel_Gabelbach
attr datetime 20180712-04:38:28
attr experiment Szenario_Hotel_Gabelbach
attr inifile omnetpp.ini
attr iterationvars "$replM=2, $biWeight=0.35, $replSearchM=1, $numUAVs=85"
attr iterationvarsf replM=2,biWeight=0.35,replSearchM=1,numUAVs=85-
attr measurement "$replM=2, $biWeight=0.35, $replSearchM=1, $numUAVs=85"
attr network OsgEarthNet
attr processid 13188
attr repetition 4
attr replication #4
attr resultdir results
attr runnumber 184
attr seedset 184
itervar biWeight 0.35
itervar numUAVs 85
itervar replM 2
itervar replSearchM 1
param *.osgEarthScene.scene "\"Szenario_Hotel_Gabelbach.earth\""
param *.playgroundLatitude 50.6830269
param *.playgroundLongitude 10.8538055
param *.playgroundWidth 3500m
param *.playgroundHeight 3500m
param *.cs[0].posX 3537m
param *.cs[0].posY 965m
param *.cs[0].posZ 538m
param *.cs[1].posX 312m
param *.cs[1].posY 1262m
param *.cs[1].posZ 539m
param *.cs[2].posX 2185m
param *.cs[2].posY 3026m
param *.cs[2].posZ 777m
param *.cs[3].posX 10m
param *.cs[3].posY 2200m
param *.cs[3].posZ 560m
param *.cs[4].posX 750m
param *.cs[4].posY 200m
param *.cs[4].posZ 540m
param *.cs[5].posX 2450m
param *.cs[5].posY 180m
param *.cs[5].posZ 524m
param *.cs[6].posX 3140m
param *.cs[6].posY 1790m
param *.cs[6].posZ 606m
param *.numCSs 3
param *.uav[*].replacementMethod 2
param *.uav[*].weightedSumWeight 0.35
param *.missionControl.replacementSearchMethod 1
param *.numUAVs 85
param *.numCSs 3
param *.numUAVs 100
param *.*.timeStep 10s
param *.uav[*].commandPreviewCommandCount 20
param *.missionControl.missionFiles "\"missions\\\\Szenario_WB_Hotel_Gabelbach_Mission_Hotel.waypoints,missions\\\\Szenario_WB_Hotel_Gabelbach_Mission_Kickelhahn.waypoints,missions\\\\Szenario_WB_Hotel_Gabelbach_Mission_Ilmenau_Sportplatz.waypoints,missions\\\\Szenario_WB_Hotel_Gabelbach_Mission_Manebach_Mitte.waypoints,missions\\\\Szenario_WB_Hotel_Gabelbach_Mission_Manebach_Sued.waypoints,missions\\\\Szenario_WB_Hotel_Gabelbach_Hover_HoheSchlaufe.waypoints,missions\\\\Szenario_WB_Hotel_Gabelbach_Hover_Kickelhahn.waypoints,missions\\\\Szenario_WB_Hotel_Gabelbach_Hover_Gabelbachskopf.waypoints,missions\\\\Szenario_WB_Hotel_Gabelbach_Hover_Dachskopf.waypoints\""
param *.uav[0].startX 3537m
param *.uav[0].startY 965m
param *.uav[0].startZ 539m
param *.uav[1].startX 312m
param *.uav[1].startY 1262m
param *.uav[1].startZ 540m
param *.uav[2].startX 2185m
param *.uav[2].startY 3026m
param *.uav[2].startZ 778m
param *.uav[3].startX 3537m
param *.uav[3].startY 965m
param *.uav[3].startZ 539m
param *.uav[4].startX 312m
param *.uav[4].startY 1262m
param *.uav[4].startZ 540m
param *.uav[5].startX 2185m
param *.uav[5].startY 3026m
param *.uav[5].startZ 778m
param *.uav[6].startX 3537m
param *.uav[6].startY 965m
param *.uav[6].startZ 539m
param *.uav[7].startX 312m
param *.uav[7].startY 1262m
param *.uav[7].startZ 540m
param *.uav[8].startX 2185m
param *.uav[8].startY 3026m
param *.uav[8].startZ 778m
param *.uav[9].startX 3537m
param *.uav[9].startY 965m
param *.uav[9].startZ 539m
param *.uav[10].startX 3537m
param *.uav[10].startY 965m
param *.uav[10].startZ 539m
param *.uav[11].startX 312m
param *.uav[11].startY 1262m
param *.uav[11].startZ 540m
param *.uav[12].startX 2185m
param *.uav[12].startY 3026m
param *.uav[12].startZ 778m
param *.uav[13].startX 3537m
param *.uav[13].startY 965m
param *.uav[13].startZ 539m
param *.uav[14].startX 312m
param *.uav[14].startY 1262m
param *.uav[14].startZ 540m
param *.uav[15].startX 2185m
param *.uav[15].startY 3026m
param *.uav[15].startZ 778m
param *.uav[16].startX 3537m
param *.uav[16].startY 965m
param *.uav[16].startZ 539m
param *.uav[17].startX 312m
param *.uav[17].startY 1262m
param *.uav[17].startZ 540m
param *.uav[18].startX 2185m
param *.uav[18].startY 3026m
param *.uav[18].startZ 778m
param *.uav[19].startX 3537m
param *.uav[19].startY 965m
param *.uav[19].startZ 539m
param *.uav[20].startX 3537m
param *.uav[20].startY 965m
param *.uav[20].startZ 539m
param *.uav[21].startX 312m
param *.uav[21].startY 1262m
param *.uav[21].startZ 540m
param *.uav[22].startX 2185m
param *.uav[22].startY 3026m
param *.uav[22].startZ 778m
param *.uav[23].startX 3537m
param *.uav[23].startY 965m
param *.uav[23].startZ 539m
param *.uav[24].startX 312m
param *.uav[24].startY 1262m
param *.uav[24].startZ 540m
param *.uav[25].startX 2185m
param *.uav[25].startY 3026m
param *.uav[25].startZ 778m
param *.uav[26].startX 3537m
param *.uav[26].startY 965m
param *.uav[26].startZ 539m
param *.uav[27].startX 312m
param *.uav[27].startY 1262m
param *.uav[27].startZ 540m
param *.uav[28].startX 2185m
param *.uav[28].startY 3026m
param *.uav[28].startZ 778m
param *.uav[29].startX 3537m
param *.uav[29].startY 965m
param *.uav[29].startZ 539m
param *.uav[30].startX 3537m
param *.uav[30].startY 965m
param *.uav[30].startZ 539m
param *.uav[31].startX 312m
param *.uav[31].startY 1262m
param *.uav[31].startZ 540m
param *.uav[32].startX 2185m
param *.uav[32].startY 3026m
param *.uav[32].startZ 778m
param *.uav[33].startX 3537m
param *.uav[33].startY 965m
param *.uav[33].startZ 539m
param *.uav[34].startX 312m
param *.uav[34].startY 1262m
param *.uav[34].startZ 540m
param *.uav[35].startX 2185m
param *.uav[35].startY 3026m
param *.uav[35].startZ 778m
param *.uav[36].startX 3537m
param *.uav[36].startY 965m
param *.uav[36].startZ 539m
param *.uav[37].startX 312m
param *.uav[37].startY 1262m
param *.uav[37].startZ 540m
param *.uav[38].startX 2185m
param *.uav[38].startY 3026m
param *.uav[38].startZ 778m
param *.uav[39].startX 3537m
param *.uav[39].startY 965m
param *.uav[39].startZ 539m
param *.uav[40].startX 3537m
param *.uav[40].startY 965m
param *.uav[40].startZ 539m
param *.uav[41].startX 312m
param *.uav[41].startY 1262m
param *.uav[41].startZ 540m
param *.uav[42].startX 2185m
param *.uav[42].startY 3026m
param *.uav[42].startZ 778m
param *.uav[43].startX 3537m
param *.uav[43].startY 965m
param *.uav[43].startZ 539m
param *.uav[44].startX 312m
param *.uav[44].startY 1262m
param *.uav[44].startZ 540m
param *.uav[45].startX 2185m
param *.uav[45].startY 3026m
param *.uav[45].startZ 778m
param *.uav[46].startX 3537m
param *.uav[46].startY 965m
param *.uav[46].startZ 539m
param *.uav[47].startX 312m
param *.uav[47].startY 1262m
param *.uav[47].startZ 540m
param *.uav[48].startX 2185m
param *.uav[48].startY 3026m
param *.uav[48].startZ 778m
param *.uav[49].startX 3537m
param *.uav[49].startY 965m
param *.uav[49].startZ 539m
param *.uav[50].startX 3537m
param *.uav[50].startY 965m
param *.uav[50].startZ 539m
param *.uav[51].startX 312m
param *.uav[51].startY 1262m
param *.uav[51].startZ 540m
param *.uav[52].startX 2185m
param *.uav[52].startY 3026m
param *.uav[52].startZ 778m
param *.uav[53].startX 3537m
param *.uav[53].startY 965m
param *.uav[53].startZ 539m
param *.uav[54].startX 312m
param *.uav[54].startY 1262m
param *.uav[54].startZ 540m
param *.uav[55].startX 2185m
param *.uav[55].startY 3026m
param *.uav[55].startZ 778m
param *.uav[56].startX 3537m
param *.uav[56].startY 965m
param *.uav[56].startZ 539m
param *.uav[57].startX 312m
param *.uav[57].startY 1262m
param *.uav[57].startZ 540m
param *.uav[58].startX 2185m
param *.uav[58].startY 3026m
param *.uav[58].startZ 778m
param *.uav[59].startX 3537m
param *.uav[59].startY 965m
param *.uav[59].startZ 539m
param *.uav[60].startX 3537m
param *.uav[60].startY 965m
param *.uav[60].startZ 539m
param *.uav[61].startX 312m
param *.uav[61].startY 1262m
param *.uav[61].startZ 540m
param *.uav[62].startX 2185m
param *.uav[62].startY 3026m
param *.uav[62].startZ 778m
param *.uav[63].startX 3537m
param *.uav[63].startY 965m
param *.uav[63].startZ 539m
param *.uav[64].startX 312m
param *.uav[64].startY 1262m
param *.uav[64].startZ 540m
param *.uav[65].startX 2185m
param *.uav[65].startY 3026m
param *.uav[65].startZ 778m
param *.uav[66].startX 3537m
param *.uav[66].startY 965m
param *.uav[66].startZ 539m
param *.uav[67].startX 312m
param *.uav[67].startY 1262m
param *.uav[67].startZ 540m
param *.uav[68].startX 2185m
param *.uav[68].startY 3026m
param *.uav[68].startZ 778m
param *.uav[69].startX 3537m
param *.uav[69].startY 965m
param *.uav[69].startZ 539m
param *.uav[70].startX 3537m
param *.uav[70].startY 965m
param *.uav[70].startZ 539m
param *.uav[71].startX 312m
param *.uav[71].startY 1262m
param *.uav[71].startZ 540m
param *.uav[72].startX 2185m
param *.uav[72].startY 3026m
param *.uav[72].startZ 778m
param *.uav[73].startX 3537m
param *.uav[73].startY 965m
param *.uav[73].startZ 539m
param *.uav[74].startX 312m
param *.uav[74].startY 1262m
param *.uav[74].startZ 540m
param *.uav[75].startX 2185m
param *.uav[75].startY 3026m
param *.uav[75].startZ 778m
param *.uav[76].startX 3537m
param *.uav[76].startY 965m
param *.uav[76].startZ 539m
param *.uav[77].startX 312m
param *.uav[77].startY 1262m
param *.uav[77].startZ 540m
param *.uav[78].startX 2185m
param *.uav[78].startY 3026m
param *.uav[78].startZ 778m
param *.uav[79].startX 3537m
param *.uav[79].startY 965m
param *.uav[79].startZ 539m
param *.uav[80].startX 3537m
param *.uav[80].startY 965m
param *.uav[80].startZ 539m
param *.uav[81].startX 312m
param *.uav[81].startY 1262m
param *.uav[81].startZ 540m
param *.uav[82].startX 2185m
param *.uav[82].startY 3026m
param *.uav[82].startZ 778m
param *.uav[83].startX 3537m
param *.uav[83].startY 965m
param *.uav[83].startZ 539m
param *.uav[84].startX 312m
param *.uav[84].startY 1262m
param *.uav[84].startZ 540m
param *.uav[85].startX 2185m
param *.uav[85].startY 3026m
param *.uav[85].startZ 778m
param *.uav[86].startX 3537m
param *.uav[86].startY 965m
param *.uav[86].startZ 539m
param *.uav[87].startX 312m
param *.uav[87].startY 1262m
param *.uav[87].startZ 540m
param *.uav[88].startX 2185m
param *.uav[88].startY 3026m
param *.uav[88].startZ 778m
param *.uav[89].startX 3537m
param *.uav[89].startY 965m
param *.uav[89].startZ 539m
param *.uav[90].startX 3537m
param *.uav[90].startY 965m
param *.uav[90].startZ 539m
param *.uav[91].startX 312m
param *.uav[91].startY 1262m
param *.uav[91].startZ 540m
param *.uav[92].startX 2185m
param *.uav[92].startY 3026m
param *.uav[92].startZ 778m
param *.uav[93].startX 3537m
param *.uav[93].startY 965m
param *.uav[93].startZ 539m
param *.uav[94].startX 312m
param *.uav[94].startY 1262m
param *.uav[94].startZ 540m
param *.uav[95].startX 2185m
param *.uav[95].startY 3026m
param *.uav[95].startZ 778m
param *.uav[96].startX 3537m
param *.uav[96].startY 965m
param *.uav[96].startZ 539m
param *.uav[97].startX 312m
param *.uav[97].startY 1262m
param *.uav[97].startZ 540m
param *.uav[98].startX 2185m
param *.uav[98].startY 3026m
param *.uav[98].startZ 778m
param *.uav[99].startX 3537m
param *.uav[99].startY 965m
param *.uav[99].startZ 539m
param *.osgEarthScene.scene "\"boston.earth\""
param *.playgroundLatitude 42.3558
param *.playgroundLongitude -71.0677
param *.playgroundWidth 400m
param *.playgroundHeight 200m
param *.channelController.connectionColor "\"#0000FF40\""
param *.channelController.showConnections false
param *.uav[*].modelURL "\"quadrocopter.small.obj.15.scale.0,0,90.rot\""
param *.uav[*].labelColor "\"#FF7C00CC\""
param *.uav[*].label2Color "\"#FF7C00EE\""
param *.uav[*].batteryCapacity 5200mAh
param *.uav[*].batteryRemaining uav[index].batteryCapacity
param *.uav[*].predictionQuantile 0.95
param *.uav[*].replacementMethod 2
param *.uav[*].weightedSumWeight 0.5
param *.cs[*].modelURL "\"chargingstation_v1.osgt.2.scale.0,0,0.rot.0,0,-15e-1.trans\""
param *.cs[*].spotsWaiting 999
param *.cs[*].spotsCharging 999
param *.cs[*].chargeEffectivenessPercentage 100
param *.cs[*].nonLinearPhaseStartPercentage 85
param *.cs[*].chargeCurrent 6.0A
param *.cs[*].prioritizeFastCharge true
param *.missionControl.replacementSearchMethod 0
param *.*.timeStep 9s

scalar OsgEarthNet.uav[0] utilizationSecMission 480
scalar OsgEarthNet.uav[0] utilizationSecMaintenance 447.1303002674
scalar OsgEarthNet.uav[0] utilizationSecCharge 3540
scalar OsgEarthNet.uav[0] utilizationSecIdle 254732.86869973
scalar OsgEarthNet.uav[0] utilizationEnergyMission 2261.9931335449
scalar OsgEarthNet.uav[0] utilizationEnergyMaintenance 2087.3045158386
scalar OsgEarthNet.uav[0] utilizationEnergyCharge 4578.33984375
scalar OsgEarthNet.uav[0] utilizationEnergyOverdrawMission 0
scalar OsgEarthNet.uav[0] utilizationEnergyOverdrawMaintenance 0
scalar OsgEarthNet.uav[0] utilizationCountMissions 1
scalar OsgEarthNet.uav[0] utilizationCountManeuversMission 24
scalar OsgEarthNet.uav[0] utilizationCountManeuversMaintenance 2
scalar OsgEarthNet.uav[0] utilizationCountChargeState 1
scalar OsgEarthNet.uav[0] utilizationCountOverdrawnAfterMission 0
scalar OsgEarthNet.uav[0] utilizationCountIdleState 2
scalar OsgEarthNet.uav[0] utilizationFail 0
scalar OsgEarthNet.uav[0] simulationTime 259200
scalar OsgEarthNet.uav[1] utilizationSecMission 20444.823451206
scalar OsgEarthNet.uav[1] utilizationSecMaintenance 15711.604574854
scalar OsgEarthNet.uav[1] utilizationSecCharge 142168.95908442
scalar OsgEarthNet.uav[1] utilizationSecIdle 80874.611889516
scalar OsgEarthNet.uav[1] utilizationEnergyMission 99485.326053619
scalar OsgEarthNet.uav[1] utilizationEnergyMaintenance 74975.291259766
scalar OsgEarthNet.uav[1] utilizationEnergyCharge 172938.04199219
scalar OsgEarthNet.uav[1] utilizationEnergyOverdrawMission 0
scalar OsgEarthNet.uav[1] utilizationEnergyOverdrawMaintenance 0
scalar OsgEarthNet.uav[1] utilizationCountMissions 47
scalar OsgEarthNet.uav[1] utilizationCountManeuversMission 707
scalar OsgEarthNet.uav[1] utilizationCountManeuversMaintenance 94
scalar OsgEarthNet.uav[1] utilizationCountChargeState 47
scalar OsgEarthNet.uav[1] utilizationCountOverdrawnAfterMission 0
scalar OsgEarthNet.uav[1] utilizationCountIdleState 47
scalar OsgEarthNet.uav[1] utilizationFail 0
scalar OsgEarthNet.uav[1] simulationTime 259200
scalar OsgEarthNet.uav[2] utilizationSecMission 38920.174305035
scalar OsgEarthNet.uav[2] utilizationSecMaintenance 17533.119332423
scalar OsgEarthNet.uav[2] utilizationSecCharge 196440
scalar OsgEarthNet.uav[2] utilizationSecIdle 6306.705362542
scalar OsgEarthNet.uav[2] utilizationEnergyMission 186178.81655121
scalar OsgEarthNet.uav[2] utilizationEnergyMaintenance 81260.485419729
scalar OsgEarthNet.uav[2] utilizationEnergyCharge 267036.30078125
scalar OsgEarthNet.uav[2] utilizationEnergyOverdrawMission 0
scalar OsgEarthNet.uav[2] utilizationEnergyOverdrawMaintenance 0
scalar OsgEarthNet.uav[2] utilizationCountMissions 59
scalar OsgEarthNet.uav[2] utilizationCountManeuversMission 1229
scalar OsgEarthNet.uav[2] utilizationCountManeuversMaintenance 118
scalar OsgEarthNet.uav[2] utilizationCountChargeState 58
scalar OsgEarthNet.uav[2] utilizationCountOverdrawnAfterMission 0
scalar OsgEarthNet.uav[2] utilizationCountIdleState 22
scalar OsgEarthNet.uav[2] utilizationFail 0
scalar OsgEarthNet.uav[2] simulationTime 259200
scalar OsgEarthNet.uav[3] utilizationSecMission 16559.851659353
scalar OsgEarthNet.uav[3] utilizationSecMaintenance 10191.032738528
scalar OsgEarthNet.uav[3] utilizationSecCharge 96186.48844133
scalar OsgEarthNet.uav[3] utilizationSecIdle 136262.62616079
scalar OsgEarthNet.uav[3] utilizationEnergyMission 80442.995662689
scalar OsgEarthNet.uav[3] utilizationEnergyMaintenance 48048.931045532
scalar OsgEarthNet.uav[3] utilizationEnergyCharge 124666.40466309
scalar OsgEarthNet.uav[3] utilizationEnergyOverdrawMission 0
scalar OsgEarthNet.uav[3] utilizationEnergyOverdrawMaintenance 0
scalar OsgEarthNet.uav[3] utilizationCountMissions 28
scalar OsgEarthNet.uav[3] utilizationCountManeuversMission 535
scalar OsgEarthNet.uav[3] utilizationCountManeuversMaintenance 56
scalar OsgEarthNet.uav[3] utilizationCountChargeState 28
scalar OsgEarthNet.uav[3] utilizationCountOverdrawnAfterMission 0
scalar OsgEarthNet.uav[3] utilizationCountIdleState 28
scalar OsgEarthNet.uav[3] utilizationFail 0
scalar OsgEarthNet.uav[3] simulationTime 259200
scalar OsgEarthNet.uav[4] utilizationSecMission 12580.346349879
scalar OsgEarthNet.uav[4] utilizationSecMaintenance 8145.5030692888
scalar OsgEarthNet.uav[4] utilizationSecCharge 79800
scalar OsgEarthNet.uav[4] utilizationSecIdle 158674.14958083
scalar OsgEarthNet.uav[4] utilizationEnergyMission 60885.505645752
scalar OsgEarthNet.uav[4] utilizationEnergyMaintenance 38804.90032196
scalar OsgEarthNet.uav[4] utilizationEnergyCharge 98721.580566406
scalar OsgEarthNet.uav[4] utilizationEnergyOverdrawMission 0
scalar OsgEarthNet.uav[4] utilizationEnergyOverdrawMaintenance 0
scalar OsgEarthNet.uav[4] utilizationCountMissions 25
scalar OsgEarthNet.uav[4] utilizationCountManeuversMission 376
scalar OsgEarthNet.uav[4] utilizationCountManeuversMaintenance 50
scalar OsgEarthNet.uav[4] utilizationCountChargeState 25
scalar OsgEarthNet.uav[4] utilizationCountOverdrawnAfterMission 0
scalar OsgEarthNet.uav[4] utilizationCountIdleState 26
scalar OsgEarthNet.uav[4] utilizationFail 0
scalar OsgEarthNet.uav[4] simulationTime 259200
scalar OsgEarthNet.uav[5] utilizationSecMission 41311.311971709
scalar OsgEarthNet.uav[5] utilizationSecMaintenance 16036.686028291
scalar OsgEarthNet.uav[5] utilizationSecCharge 196730
scalar OsgEarthNet.uav[5] utilizationSecIdle 5122.001
scalar OsgEarthNet.uav[5] utilizationEnergyMission 194438.14405078
scalar OsgEarthNet.uav[5] utilizationEnergyMaintenance 73751.877311707
scalar OsgEarthNet.uav[5] utilizationEnergyCharge 266933.63623047
scalar OsgEarthNet.uav[5] utilizationEnergyOverdrawMission 0
scalar OsgEarthNet.uav[5] utilizationEnergyOverdrawMaintenance 0
scalar OsgEarthNet.uav[5] utilizationCountMissions 58
scalar OsgEarthNet.uav[5] utilizationCountManeuversMission 1021
scalar OsgEarthNet.uav[5] utilizationCountManeuversMaintenance 117
scalar OsgEarthNet.uav[5] utilizationCountChargeState 58
scalar OsgEarthNet.uav[5] utilizationCountOverdrawnAfterMission 0
scalar OsgEarthNet.uav[5] utilizationCountIdleState 27
scalar OsgEarthNet.uav[5] utilizationFail 0
scalar OsgEarthNet.uav[5] simulationTime 259200
scalar OsgEarthNet.uav[6] utilizationSecMission 8073.383801652
scalar OsgEarthNet.uav[6] utilizationSecMaintenance 5144.1891304693
scalar OsgEarthNet.uav[6] utilizationSecCharge 49140
scalar OsgEarthNet.uav[6] utilizationSecIdle 196842.42606788
scalar OsgEarthNet.uav[6] utilizationEnergyMission 39255.572254181
scalar OsgEarthNet.uav[6] utilizationEnergyMaintenance 24284.594532013
scalar OsgEarthNet.uav[6] utilizationEnergyCharge 63425.009765625
scalar OsgEarthNet.uav[6] utilizationEnergyOverdrawMission 0
scalar OsgEarthNet.uav[6] utilizationEnergyOverdrawMaintenance 0
scalar OsgEarthNet.uav[6] utilizationCountMissions 14
scalar OsgEarthNet.uav[6] utilizationCountManeuversMission 269
scalar OsgEarthNet.uav[6] utilizationCountManeuversMaintenance 28
scalar OsgEarthNet.uav[6] utilizationCountChargeState 14
scalar OsgEarthNet.uav[6] utilizationCountOverdrawnAfterMission 0
scalar OsgEarthNet.uav[6] utilizationCountIdleState 15
scalar OsgEarthNet.uav[6] utilizationFail 0
scalar OsgEarthNet.uav[6] simulationTime 259200
scalar OsgEarthNet.uav[7] utilizationSecMission 20462.592111011
scalar OsgEarthNet.uav[7] utilizationSecMaintenance 13239.436808569
scalar OsgEarthNet.uav[7] utilizationSecCharge 126985.96908042
scalar OsgEarthNet.uav[7] utilizationSecIdle 98512.001
scalar OsgEarthNet.uav[7] utilizationEnergyMission 98352.644584656
scalar OsgEarthNet.uav[7] utilizationEnergyMaintenance 63080.18315506
scalar OsgEarthNet.uav[7] utilizationEnergyCharge 160107.86816406
scalar OsgEarthNet.uav[7] utilizationEnergyOverdrawMission 0
scalar OsgEarthNet.uav[7] utilizationEnergyOverdrawMaintenance 0
scalar OsgEarthNet.uav[7] utilizationCountMissions 39
scalar OsgEarthNet.uav[7] utilizationCountManeuversMission 696
scalar OsgEarthNet.uav[7] utilizationCountManeuversMaintenance 78
scalar OsgEarthNet.uav[7] utilizationCountChargeState 39
scalar OsgEarthNet.uav[7] utilizationCountOverdrawnAfterMission 0
scalar OsgEarthNet.uav[7] utilizationCountIdleState 39
scalar OsgEarthNet.uav[7] utilizationFail 0
scalar OsgEarthNet.uav[7] simulationTime 259200
scalar OsgEarthNet.uav[8] utilizationSecMission 39481.355546291
scalar OsgEarthNet.uav[8] utilizationSecMaintenance 16997.042257883
scalar OsgEarthNet.uav[8] utilizationSecCharge 195998.07586459
scalar OsgEarthNet.uav[8] utilizationSecIdle 6723.5253312322
scalar OsgEarthNet.uav[8] utilizationEnergyMission 187945.09314346
scalar OsgEarthNet.uav[8] utilizationEnergyMaintenance 77317.570869446
scalar OsgEarthNet.uav[8] utilizationEnergyCharge 265799.34106445
scalar OsgEarthNet.uav[8] utilizationEnergyOverdrawMission 0
scalar OsgEarthNet.uav[8] utilizationEnergyOverdrawMaintenance 0
scalar OsgEarthNet.uav[8] utilizationCountMissions 58
scalar OsgEarthNet.uav[8] utilizationCountManeuversMission 1135
scalar OsgEarthNet.uav[8] utilizationCountManeuversMaintenance 116
scalar OsgEarthNet.uav[8] utilizationCountChargeState 58
scalar OsgEarthNet.uav[8] utilizationCountOverdrawnAfterMission 0
scalar OsgEarthNet.uav[8] utilizationCountIdleState 30
scalar OsgEarthNet.uav[8] utilizationFail 0
scalar OsgEarthNet.uav[8] simulationTime 259200
scalar OsgEarthNet.uav[9] utilizationSecMission 9752.1334964914
scalar OsgEarthNet.uav[9] utilizationSecMaintenance 7879.8275398095
scalar OsgEarthNet.uav[9] utilizationSecCharge 67010
scalar OsgEarthNet.uav[9] utilizationSecIdle 174558.0379637
scalar OsgEarthNet.uav[9] utilizationEnergyMission 49488.246875763
scalar OsgEarthNet.uav[9] utilizationEnergyMaintenance 37133.829227447
scalar OsgEarthNet.uav[9] utilizationEnergyCharge 86386.612304688
scalar OsgEarthNet.uav[9] utilizationEnergyOverdrawMission 0
scalar OsgEarthNet.uav[9] utilizationEnergyOverdrawMaintenance 0
scalar OsgEarthNet.uav[9] utilizationCountMissions 19
scalar OsgEarthNet.uav[9] utilizationCountManeuversMission 405
scalar OsgEarthNet.uav[9] utilizationCountManeuversMaintenance 38
scalar OsgEarthNet.uav[9] utilizationCountChargeState 19
scalar OsgEarthNet.uav[9] utilizationCountOverdrawnAfterMission 0
scalar OsgEarthNet.uav[9] utilizationCountIdleState 20
scalar OsgEarthNet.uav[9] utilizationFail 0
scalar OsgEarthNet.uav[9] simulationTime 259200
scalar OsgEarthNet.uav[10] utilizationSecMission 10114.634106813
scalar OsgEarthNet.uav[10] utilizationSecMaintenance 6065.3605995608
scalar OsgEarthNet.uav[10] utilizationSecCharge 59430
scalar OsgEarthNet.uav[10] utilizationSecIdle 183590.00429363
scalar OsgEarthNet.uav[10] utilizationEnergyMission 47129.766963959
scalar OsgEarthNet.uav[10] utilizationEnergyMaintenance 28571.362632751
scalar OsgEarthNet.uav[10] utilizationEnergyCharge 76259.961914062
scalar OsgEarthNet.uav[10] utilizationEnergyOverdrawMission 0
scalar OsgEarthNet.uav[10] utilizationEnergyOverdrawMaintenance 0
scalar OsgEarthNet.uav[10] utilizationCountMissions 17
scalar OsgEarthNet.uav[10] utilizationCountManeuversMission 319
scalar OsgEarthNet.uav[10] utilizationCountManeuversMaintenance 34
scalar OsgEarthNet.uav[10] utilizationCountChargeState 17
scalar OsgEarthNet.uav[10] utilizationCountOverdrawnAfterMission 0
scalar OsgEarthNet.uav[10] utilizationCountIdleState 18
scalar OsgEarthNet.uav[10] utilizationFail 0
scalar OsgEarthNet.uav[10] simulationTime 259200
scalar OsgEarthNet.uav[11] utilizationSecMission 19959.149008998
scalar OsgEarthNet.uav[11] utilizationSecMaintenance 13482.185333918
scalar OsgEarthNet.uav[11] utilizationSecCharge 129700
scalar OsgEarthNet.uav[11] utilizationSecIdle 96058.664657084
scalar OsgEarthNet.uav[11] utilizationEnergyMission 96088.299007416
scalar OsgEarthNet.uav[11] utilizationEnergyMaintenance 63643.952720642
scalar OsgEarthNet.uav[11] utilizationEnergyCharge 159662.00097656
scalar OsgEarthNet.uav[11] utilizationEnergyOverdrawMission 0
scalar OsgEarthNet.uav[11] utilizationEnergyOverdrawMaintenance 0
scalar OsgEarthNet.uav[11] utilizationCountMissions 41
scalar OsgEarthNet.uav[11] utilizationCountManeuversMission 618
scalar OsgEarthNet.uav[11] utilizationCountManeuversMaintenance 82
scalar OsgEarthNet.uav[11] utilizationCountChargeState 41
scalar OsgEarthNet.uav[11] utilizationCountOverdrawnAfterMission 0
scalar OsgEarthNet.uav[11] utilizationCountIdleState 42
scalar OsgEarthNet.uav[11] utilizationFail 0
scalar OsgEarthNet.uav[11] simulationTime 259200
scalar OsgEarthNet.uav[12] utilizationSecMission 41210.636728507
scalar OsgEarthNet.uav[12] utilizationSecMaintenance 16049.830514083
scalar OsgEarthNet.uav[12] utilizationSecCharge 196267.52875741
scalar OsgEarthNet.uav[12] utilizationSecIdle 5672.003
scalar OsgEarthNet.uav[12] utilizationEnergyMission 196629.38840485
scalar OsgEarthNet.uav[12] utilizationEnergyMaintenance 73636.831607819
scalar OsgEarthNet.uav[12] utilizationEnergyCharge 266879.22363281
scalar OsgEarthNet.uav[12] utilizationEnergyOverdrawMission 0
scalar OsgEarthNet.uav[12] utilizationEnergyOverdrawMaintenance 0
scalar OsgEarthNet.uav[12] utilizationCountMissions 58
scalar OsgEarthNet.uav[12] utilizationCountManeuversMission 1116
scalar OsgEarthNet.uav[12] utilizationCountManeuversMaintenance 116
scalar OsgEarthNet.uav[12] utilizationCountChargeState 58
scalar OsgEarthNet.uav[12] utilizationCountOverdrawnAfterMission 0
scalar OsgEarthNet.uav[12] utilizationCountIdleState 23
scalar OsgEarthNet.uav[12] utilizationFail 0
scalar OsgEarthNet.uav[12] simulationTime 259200
scalar OsgEarthNet.uav[13] utilizationSecMission 13772.748722944
scalar OsgEarthNet.uav[13] utilizationSecMaintenance 9285.2462770556
scalar OsgEarthNet.uav[13] utilizationSecCharge 84150
scalar OsgEarthNet.uav[13] utilizationSecIdle 151992.004
scalar OsgEarthNet.uav[13] utilizationEnergyMission 67142.17300583
scalar OsgEarthNet.uav[13] utilizationEnergyMaintenance 43896.833984375
scalar OsgEarthNet.uav[13] utilizationEnergyCharge 108464.41308594
scalar OsgEarthNet.uav[13] utilizationEnergyOverdrawMission 0
scalar OsgEarthNet.uav[13] utilizationEnergyOverdrawMaintenance 0
scalar OsgEarthNet.uav[13] utilizationCountMissions 24
scalar OsgEarthNet.uav[13] utilizationCountManeuversMission 490
scalar OsgEarthNet.uav[13] utilizationCountManeuversMaintenance 49
scalar OsgEarthNet.uav[13] utilizationCountChargeState 24
scalar OsgEarthNet.uav[13] utilizationCountOverdrawnAfterMission 0
scalar OsgEarthNet.uav[13] utilizationCountIdleState 25
scalar OsgEarthNet.uav[13] utilizationFail 0
scalar OsgEarthNet.uav[13] simulationTime 259200
scalar OsgEarthNet.uav[14] utilizationSecMission 38660.848912599
scalar OsgEarthNet.uav[14] utilizationSecMaintenance 17533.70699871
scalar OsgEarthNet.uav[14] utilizationSecCharge 197360
scalar OsgEarthNet.uav[14] utilizationSecIdle 5645.4430886909
scalar OsgEarthNet.uav[14] utilizationEnergyMission 189053.82492765
scalar OsgEarthNet.uav[14] utilizationEnergyMaintenance 80822.486961365
scalar OsgEarthNet.uav[14] utilizationEnergyCharge 267942.10449219
scalar OsgEarthNet.uav[14] utilizationEnergyOverdrawMission 0
scalar OsgEarthNet.uav[14] utilizationEnergyOverdrawMaintenance 0
scalar OsgEarthNet.uav[14] utilizationCountMissions 58
scalar OsgEarthNet.uav[14] utilizationCountManeuversMission 1225
scalar OsgEarthNet.uav[14] utilizationCountManeuversMaintenance 117
scalar OsgEarthNet.uav[14] utilizationCountChargeState 58
scalar OsgEarthNet.uav[14] utilizationCountOverdrawnAfterMission 0
scalar OsgEarthNet.uav[14] utilizationCountIdleState 22
scalar OsgEarthNet.uav[14] utilizationFail 0
scalar OsgEarthNet.uav[14] simulationTime 259200
scalar OsgEarthNet.uav[15] utilizationSecMission 39028.926852353
scalar OsgEarthNet.uav[15] utilizationSecMaintenance 17069.758454127
scalar OsgEarthNet.uav[15] utilizationSecCharge 196900
scalar OsgEarthNet.uav[15] utilizationSecIdle 6201.3136935207
scalar OsgEarthNet.uav[15] utilizationEnergyMission 187355.94656372
scalar OsgEarthNet.uav[15] utilizationEnergyMaintenance 78313.256813049
scalar OsgEarthNet.uav[15] utilizationEnergyCharge 267238.21875
scalar OsgEarthNet.uav[15] utilizationEnergyOverdrawMission 0
scalar OsgEarthNet.uav[15] utilizationEnergyOverdrawMaintenance 0
scalar OsgEarthNet.uav[15] utilizationCountMissions 58
scalar OsgEarthNet.uav[15] utilizationCountManeuversMission 1206
scalar OsgEarthNet.uav[15] utilizationCountManeuversMaintenance 116
scalar OsgEarthNet.uav[15] utilizationCountChargeState 58
scalar OsgEarthNet.uav[15] utilizationCountOverdrawnAfterMission 0
scalar OsgEarthNet.uav[15] utilizationCountIdleState 24
scalar OsgEarthNet.uav[15] utilizationFail 0
scalar OsgEarthNet.uav[15] simulationTime 259200
scalar OsgEarthNet.uav[16] utilizationSecMission 15196.509564553
scalar OsgEarthNet.uav[16] utilizationSecMaintenance 9241.4824354466
scalar OsgEarthNet.uav[16] utilizationSecCharge 86890
scalar OsgEarthNet.uav[16] utilizationSecIdle 147872.007
scalar OsgEarthNet.uav[16] utilizationEnergyMission 73675.985816956
scalar OsgEarthNet.uav[16] utilizationEnergyMaintenance 43659.621870941
scalar OsgEarthNet.uav[16] utilizationEnergyCharge 111694.80126953
scalar OsgEarthNet.uav[16] utilizationEnergyOverdrawMission 0
scalar OsgEarthNet.uav[16] utilizationEnergyOverdrawMaintenance 0
scalar OsgEarthNet.uav[16] utilizationCountMissions 26
scalar OsgEarthNet.uav[16] utilizationCountManeuversMission 495
scalar OsgEarthNet.uav[16] utilizationCountManeuversMaintenance 52
scalar OsgEarthNet.uav[16] utilizationCountChargeState 25
scalar OsgEarthNet.uav[16] utilizationCountOverdrawnAfterMission 0
scalar OsgEarthNet.uav[16] utilizationCountIdleState 26
scalar OsgEarthNet.uav[16] utilizationFail 0
scalar OsgEarthNet.uav[16] simulationTime 259200
scalar OsgEarthNet.uav[17] utilizationSecMission 19643.996251754
scalar OsgEarthNet.uav[17] utilizationSecMaintenance 13506.501128876
scalar OsgEarthNet.uav[17] utilizationSecCharge 126594.79592033
scalar OsgEarthNet.uav[17] utilizationSecIdle 99454.705699036
scalar OsgEarthNet.uav[17] utilizationEnergyMission 98630.634449005
scalar OsgEarthNet.uav[17] utilizationEnergyMaintenance 64084.029773712
scalar OsgEarthNet.uav[17] utilizationEnergyCharge 160553.49389648
scalar OsgEarthNet.uav[17] utilizationEnergyOverdrawMission 0
scalar OsgEarthNet.uav[17] utilizationEnergyOverdrawMaintenance 0
scalar OsgEarthNet.uav[17] utilizationCountMissions 38
scalar OsgEarthNet.uav[17] utilizationCountManeuversMission 759
scalar OsgEarthNet.uav[17] utilizationCountManeuversMaintenance 76
scalar OsgEarthNet.uav[17] utilizationCountChargeState 38
scalar OsgEarthNet.uav[17] utilizationCountOverdrawnAfterMission 0
scalar OsgEarthNet.uav[17] utilizationCountIdleState 38
scalar OsgEarthNet.uav[17] utilizationFail 0
scalar OsgEarthNet.uav[17] simulationTime 259200
scalar OsgEarthNet.uav[18] utilizationSecMission 40187.487824367
scalar OsgEarthNet.uav[18] utilizationSecMaintenance 16481.845784215
scalar OsgEarthNet.uav[18] utilizationSecCharge 197047.9627237
scalar OsgEarthNet.uav[18] utilizationSecIdle 5482.7026677176
scalar OsgEarthNet.uav[18] utilizationEnergyMission 191571.88466644
scalar OsgEarthNet.uav[18] utilizationEnergyMaintenance 76351.732673645
scalar OsgEarthNet.uav[18] utilizationEnergyCharge 269049.57470703
scalar OsgEarthNet.uav[18] utilizationEnergyOverdrawMission 0
scalar OsgEarthNet.uav[18] utilizationEnergyOverdrawMaintenance 0
scalar OsgEarthNet.uav[18] utilizationCountMissions 58
scalar OsgEarthNet.uav[18] utilizationCountManeuversMission 1144
scalar OsgEarthNet.uav[18] utilizationCountManeuversMaintenance 116
scalar OsgEarthNet.uav[18] utilizationCountChargeState 58
scalar OsgEarthNet.uav[18] utilizationCountOverdrawnAfterMission 0
scalar OsgEarthNet.uav[18] utilizationCountIdleState 23
scalar OsgEarthNet.uav[18] utilizationFail 0
scalar OsgEarthNet.uav[18] simulationTime 259200
scalar OsgEarthNet.uav[19] utilizationSecMission 41523.216165309
scalar OsgEarthNet.uav[19] utilizationSecMaintenance 14137.591100858
scalar OsgEarthNet.uav[19] utilizationSecCharge 191811.92723005
scalar OsgEarthNet.uav[19] utilizationSecIdle 11727.264503779
scalar OsgEarthNet.uav[19] utilizationEnergyMission 197219.53167725
scalar OsgEarthNet.uav[19] utilizationEnergyMaintenance 63768.987667084
scalar OsgEarthNet.uav[19] utilizationEnergyCharge 258582.36328125
scalar OsgEarthNet.uav[19] utilizationEnergyOverdrawMission 0
scalar OsgEarthNet.uav[19] utilizationEnergyOverdrawMaintenance 0
scalar OsgEarthNet.uav[19] utilizationCountMissions 56
scalar OsgEarthNet.uav[19] utilizationCountManeuversMission 997
scalar OsgEarthNet.uav[19] utilizationCountManeuversMaintenance 112
scalar OsgEarthNet.uav[19] utilizationCountChargeState 56
scalar OsgEarthNet.uav[19] utilizationCountOverdrawnAfterMission 0
scalar OsgEarthNet.uav[19] utilizationCountIdleState 38
scalar OsgEarthNet.uav[19] utilizationFail 0
scalar OsgEarthNet.uav[19] simulationTime 259200
scalar OsgEarthNet.uav[20] utilizationSecMission 10245.001220642
scalar OsgEarthNet.uav[20] utilizationSecMaintenance 5746.8285023016
scalar OsgEarthNet.uav[20] utilizationSecCharge 59470
scalar OsgEarthNet.uav[20] utilizationSecIdle 183738.16927706
scalar OsgEarthNet.uav[20] utilizationEnergyMission 50326.303627014
scalar OsgEarthNet.uav[20] utilizationEnergyMaintenance 26986.014904022
scalar OsgEarthNet.uav[20] utilizationEnergyCharge 76405.901855469
scalar OsgEarthNet.uav[20] utilizationEnergyOverdrawMission 0
scalar OsgEarthNet.uav[20] utilizationEnergyOverdrawMaintenance 0
scalar OsgEarthNet.uav[20] utilizationCountMissions 17
scalar OsgEarthNet.uav[20] utilizationCountManeuversMission 304
scalar OsgEarthNet.uav[20] utilizationCountManeuversMaintenance 34
scalar OsgEarthNet.uav[20] utilizationCountChargeState 17
scalar OsgEarthNet.uav[20] utilizationCountOverdrawnAfterMission 0
scalar OsgEarthNet.uav[20] utilizationCountIdleState 18
scalar OsgEarthNet.uav[20] utilizationFail 0
scalar OsgEarthNet.uav[20] simulationTime 259200
scalar OsgEarthNet.uav[21] utilizationSecMission 18224.616651343
scalar OsgEarthNet.uav[21] utilizationSecMaintenance 13667.248657758
scalar OsgEarthNet.uav[21] utilizationSecCharge 125956.1246909
scalar OsgEarthNet.uav[21] utilizationSecIdle 101352.009
scalar OsgEarthNet.uav[21] utilizationEnergyMission 90088.472904205
scalar OsgEarthNet.uav[21] utilizationEnergyMaintenance 64701.648479462
scalar OsgEarthNet.uav[21] utilizationEnergyCharge 153166.40698242
scalar OsgEarthNet.uav[21] utilizationEnergyOverdrawMission 0
scalar OsgEarthNet.uav[21] utilizationEnergyOverdrawMaintenance 0
scalar OsgEarthNet.uav[21] utilizationCountMissions 41
scalar OsgEarthNet.uav[21] utilizationCountManeuversMission 619
scalar OsgEarthNet.uav[21] utilizationCountManeuversMaintenance 82
scalar OsgEarthNet.uav[21] utilizationCountChargeState 41
scalar OsgEarthNet.uav[21] utilizationCountOverdrawnAfterMission 0
scalar OsgEarthNet.uav[21] utilizationCountIdleState 41
scalar OsgEarthNet.uav[21] utilizationFail 0
scalar OsgEarthNet.uav[21] simulationTime 259200
scalar OsgEarthNet.uav[22] utilizationSecMission 40342.375168043
scalar OsgEarthNet.uav[22] utilizationSecMaintenance 16840.151743416
scalar OsgEarthNet.uav[22] utilizationSecCharge 198615.47208854
scalar OsgEarthNet.uav[22] utilizationSecIdle 3402
scalar OsgEarthNet.uav[22] utilizationEnergyMission 193616.08223144
scalar OsgEarthNet.uav[22] utilizationEnergyMaintenance 78684.271320343
scalar OsgEarthNet.uav[22] utilizationEnergyCharge 272031.35449219
scalar OsgEarthNet.uav[22] utilizationEnergyOverdrawMission 0
scalar OsgEarthNet.uav[22] utilizationEnergyOverdrawMaintenance 0
scalar OsgEarthNet.uav[22] utilizationCountMissions 59
scalar OsgEarthNet.uav[22] utilizationCountManeuversMission 1261
scalar OsgEarthNet.uav[22] utilizationCountManeuversMaintenance 117
scalar OsgEarthNet.uav[22] utilizationCountChargeState 59
scalar OsgEarthNet.uav[22] utilizationCountOverdrawnAfterMission 0
scalar OsgEarthNet.uav[22] utilizationCountIdleState 22
scalar OsgEarthNet.uav[22] utilizationFail 0
scalar OsgEarthNet.uav[22] simulationTime 259200
scalar OsgEarthNet.uav[23] utilizationSecMission 39162.576390348
scalar OsgEarthNet.uav[23] utilizationSecMaintenance 17633.768315603
scalar OsgEarthNet.uav[23] utilizationSecCharge 195772.70403838
scalar OsgEarthNet.uav[23] utilizationSecIdle 6630.9502556647
scalar OsgEarthNet.uav[23] utilizationEnergyMission 186075.68797302
scalar OsgEarthNet.uav[23] utilizationEnergyMaintenance 80713.547676086
scalar OsgEarthNet.uav[23] utilizationEnergyCharge 266815.015625
scalar OsgEarthNet.uav[23] utilizationEnergyOverdrawMission 0
scalar OsgEarthNet.uav[23] utilizationEnergyOverdrawMaintenance 0
scalar OsgEarthNet.uav[23] utilizationCountMissions 58
scalar OsgEarthNet.uav[23] utilizationCountManeuversMission 1126
scalar OsgEarthNet.uav[23] utilizationCountManeuversMaintenance 116
scalar OsgEarthNet.uav[23] utilizationCountChargeState 58
scalar OsgEarthNet.uav[23] utilizationCountOverdrawnAfterMission 0
scalar OsgEarthNet.uav[23] utilizationCountIdleState 23
scalar OsgEarthNet.uav[23] utilizationFail 0
scalar OsgEarthNet.uav[23] simulationTime 259200
scalar OsgEarthNet.uav[24] utilizationSecMission 17825.746742377
scalar OsgEarthNet.uav[24] utilizationSecMaintenance 11617.245505824
scalar OsgEarthNet.uav[24] utilizationSecCharge 111785.94895661
scalar OsgEarthNet.uav[24] utilizationSecIdle 117971.05779519
scalar OsgEarthNet.uav[24] utilizationEnergyMission 85509.030296326
scalar OsgEarthNet.uav[24] utilizationEnergyMaintenance 55138.050319672
scalar OsgEarthNet.uav[24] utilizationEnergyCharge 138514.12402344
scalar OsgEarthNet.uav[24] utilizationEnergyOverdrawMission 0
scalar OsgEarthNet.uav[24] utilizationEnergyOverdrawMaintenance 0
scalar OsgEarthNet.uav[24] utilizationCountMissions 36
scalar OsgEarthNet.uav[24] utilizationCountManeuversMission 519
scalar OsgEarthNet.uav[24] utilizationCountManeuversMaintenance 72
scalar OsgEarthNet.uav[24] utilizationCountChargeState 36
scalar OsgEarthNet.uav[24] utilizationCountOverdrawnAfterMission 0
scalar OsgEarthNet.uav[24] utilizationCountIdleState 36
scalar OsgEarthNet.uav[24] utilizationFail 0
scalar OsgEarthNet.uav[24] simulationTime 259200
scalar OsgEarthNet.uav[25] utilizationSecMission 39076.378991457
scalar OsgEarthNet.uav[25] utilizationSecMaintenance 16942.9195669
scalar OsgEarthNet.uav[25] utilizationSecCharge 196230
scalar OsgEarthNet.uav[25] utilizationSecIdle 6950.7004416429
scalar OsgEarthNet.uav[25] utilizationEnergyMission 190870.16371099
scalar OsgEarthNet.uav[25] utilizationEnergyMaintenance 78367.105659485
scalar OsgEarthNet.uav[25] utilizationEnergyCharge 266887.08789062
scalar OsgEarthNet.uav[25] utilizationEnergyOverdrawMission 0
scalar OsgEarthNet.uav[25] utilizationEnergyOverdrawMaintenance 0
scalar OsgEarthNet.uav[25] utilizationCountMissions 58
scalar OsgEarthNet.uav[25] utilizationCountManeuversMission 1193
scalar OsgEarthNet.uav[25] utilizationCountManeuversMaintenance 117
scalar OsgEarthNet.uav[25] utilizationCountChargeState 58
scalar OsgEarthNet.uav[25] utilizationCountOverdrawnAfterMission 0
scalar OsgEarthNet.uav[25] utilizationCountIdleState 20
scalar OsgEarthNet.uav[25] utilizationFail 0
scalar OsgEarthNet.uav[25] simulationTime 259200
scalar OsgEarthNet.uav[26] utilizationSecMission 12263.125762901
scalar OsgEarthNet.uav[26] utilizationSecMaintenance 9321.5026733008
scalar OsgEarthNet.uav[26] utilizationSecCharge 80840
scalar OsgEarthNet.uav[26] utilizationSecIdle 156775.3705638
scalar OsgEarthNet.uav[26] utilizationEnergyMission 61055.798225403
scalar OsgEarthNet.uav[26] utilizationEnergyMaintenance 43936.970737457
scalar OsgEarthNet.uav[26] utilizationEnergyCharge 104259.33154297
scalar OsgEarthNet.uav[26] utilizationEnergyOverdrawMission 0
scalar OsgEarthNet.uav[26] utilizationEnergyOverdrawMaintenance 0
scalar OsgEarthNet.uav[26] utilizationCountMissions 23
scalar OsgEarthNet.uav[26] utilizationCountManeuversMission 483
scalar OsgEarthNet.uav[26] utilizationCountManeuversMaintenance 46
scalar OsgEarthNet.uav[26] utilizationCountChargeState 23
scalar OsgEarthNet.uav[26] utilizationCountOverdrawnAfterMission 0
scalar OsgEarthNet.uav[26] utilizationCountIdleState 24
scalar OsgEarthNet.uav[26] utilizationFail 0
scalar OsgEarthNet.uav[26] simulationTime 259200
scalar OsgEarthNet.uav[27] utilizationSecMission 19729.18984439
scalar OsgEarthNet.uav[27] utilizationSecMaintenance 13110.788881465
scalar OsgEarthNet.uav[27] utilizationSecCharge 126310
scalar OsgEarthNet.uav[27] utilizationSecIdle 100050.02027414
scalar OsgEarthNet.uav[27] utilizationEnergyMission 98704.001735687
scalar OsgEarthNet.uav[27] utilizationEnergyMaintenance 62488.679533911
scalar OsgEarthNet.uav[27] utilizationEnergyCharge 158935.68530273
scalar OsgEarthNet.uav[27] utilizationEnergyOverdrawMission 0
scalar OsgEarthNet.uav[27] utilizationEnergyOverdrawMaintenance 0
scalar OsgEarthNet.uav[27] utilizationCountMissions 38
scalar OsgEarthNet.uav[27] utilizationCountManeuversMission 667
scalar OsgEarthNet.uav[27] utilizationCountManeuversMaintenance 77
scalar OsgEarthNet.uav[27] utilizationCountChargeState 38
scalar OsgEarthNet.uav[27] utilizationCountOverdrawnAfterMission 0
scalar OsgEarthNet.uav[27] utilizationCountIdleState 39
scalar OsgEarthNet.uav[27] utilizationFail 0
scalar OsgEarthNet.uav[27] simulationTime 259200
scalar OsgEarthNet.uav[28] utilizationSecMission 39854.421612024
scalar OsgEarthNet.uav[28] utilizationSecMaintenance 16660.012582947
scalar OsgEarthNet.uav[28] utilizationSecCharge 195735.93372436
scalar OsgEarthNet.uav[28] utilizationSecIdle 6949.6310806652
scalar OsgEarthNet.uav[28] utilizationEnergyMission 194166.65255356
scalar OsgEarthNet.uav[28] utilizationEnergyMaintenance 76156.631004333
scalar OsgEarthNet.uav[28] utilizationEnergyCharge 265559.08447266
scalar OsgEarthNet.uav[28] utilizationEnergyOverdrawMission 0
scalar OsgEarthNet.uav[28] utilizationEnergyOverdrawMaintenance 0
scalar OsgEarthNet.uav[28] utilizationCountMissions 58
scalar OsgEarthNet.uav[28] utilizationCountManeuversMission 1144
scalar OsgEarthNet.uav[28] utilizationCountManeuversMaintenance 116
scalar OsgEarthNet.uav[28] utilizationCountChargeState 58
scalar OsgEarthNet.uav[28] utilizationCountOverdrawnAfterMission 0
scalar OsgEarthNet.uav[28] utilizationCountIdleState 27
scalar OsgEarthNet.uav[28] utilizationFail 0
scalar OsgEarthNet.uav[28] simulationTime 259200
scalar OsgEarthNet.uav[29] utilizationSecMission 17726.876678383
scalar OsgEarthNet.uav[29] utilizationSecMaintenance 11422.850709787
scalar OsgEarthNet.uav[29] utilizationSecCharge 109290
scalar OsgEarthNet.uav[29] utilizationSecIdle 120760.27161183
scalar OsgEarthNet.uav[29] utilizationEnergyMission 86612.659301758
scalar OsgEarthNet.uav[29] utilizationEnergyMaintenance 54020.907154083
scalar OsgEarthNet.uav[29] utilizationEnergyCharge 140655.54931641
scalar OsgEarthNet.uav[29] utilizationEnergyOverdrawMission 0
scalar OsgEarthNet.uav[29] utilizationEnergyOverdrawMaintenance 0
scalar OsgEarthNet.uav[29] utilizationCountMissions 31
scalar OsgEarthNet.uav[29] utilizationCountManeuversMission 600
scalar OsgEarthNet.uav[29] utilizationCountManeuversMaintenance 62
scalar OsgEarthNet.uav[29] utilizationCountChargeState 31
scalar OsgEarthNet.uav[29] utilizationCountOverdrawnAfterMission 0
scalar OsgEarthNet.uav[29] utilizationCountIdleState 32
scalar OsgEarthNet.uav[29] utilizationFail 0
scalar OsgEarthNet.uav[29] simulationTime 259200
scalar OsgEarthNet.uav[30] utilizationSecMission 39497.28824408
scalar OsgEarthNet.uav[30] utilizationSecMaintenance 16840.03422092
scalar OsgEarthNet.uav[30] utilizationSecCharge 195871.72727934
scalar OsgEarthNet.uav[30] utilizationSecIdle 6990.9492556647
scalar OsgEarthNet.uav[30] utilizationEnergyMission 190625.59314728
scalar OsgEarthNet.uav[30] utilizationEnergyMaintenance 76968.327323914
scalar OsgEarthNet.uav[30] utilizationEnergyCharge 266424.86328125
scalar OsgEarthNet.uav[30] utilizationEnergyOverdrawMission 0
scalar OsgEarthNet.uav[30] utilizationEnergyOverdrawMaintenance 0
scalar OsgEarthNet.uav[30] utilizationCountMissions 58
scalar OsgEarthNet.uav[30] utilizationCountManeuversMission 1224
scalar OsgEarthNet.uav[30] utilizationCountManeuversMaintenance 116
scalar OsgEarthNet.uav[30] utilizationCountChargeState 58
scalar OsgEarthNet.uav[30] utilizationCountOverdrawnAfterMission 0
scalar OsgEarthNet.uav[30] utilizationCountIdleState 28
scalar OsgEarthNet.uav[30] utilizationFail 0
scalar OsgEarthNet.uav[30] simulationTime 259200
scalar OsgEarthNet.uav[31] utilizationSecMission 18430.800784996
scalar OsgEarthNet.uav[31] utilizationSecMaintenance 12697.192215004
scalar OsgEarthNet.uav[31] utilizationSecCharge 117780
scalar OsgEarthNet.uav[31] utilizationSecIdle 110292.006
scalar OsgEarthNet.uav[31] utilizationEnergyMission 91738.861587524
scalar OsgEarthNet.uav[31] utilizationEnergyMaintenance 59543.876023972
scalar OsgEarthNet.uav[31] utilizationEnergyCharge 146952.68701172
scalar OsgEarthNet.uav[31] utilizationEnergyOverdrawMission 0
scalar OsgEarthNet.uav[31] utilizationEnergyOverdrawMaintenance 0
scalar OsgEarthNet.uav[31] utilizationCountMissions 37
scalar OsgEarthNet.uav[31] utilizationCountManeuversMission 683
scalar OsgEarthNet.uav[31] utilizationCountManeuversMaintenance 74
scalar OsgEarthNet.uav[31] utilizationCountChargeState 36
scalar OsgEarthNet.uav[31] utilizationCountOverdrawnAfterMission 0
scalar OsgEarthNet.uav[31] utilizationCountIdleState 37
scalar OsgEarthNet.uav[31] utilizationFail 0
scalar OsgEarthNet.uav[31] simulationTime 259200
scalar OsgEarthNet.uav[32] utilizationSecMission 38251.70691137
scalar OsgEarthNet.uav[32] utilizationSecMaintenance 18307.173340696
scalar OsgEarthNet.uav[32] utilizationSecCharge 197139.11474793
scalar OsgEarthNet.uav[32] utilizationSecIdle 5502.004
scalar OsgEarthNet.uav[32] utilizationEnergyMission 185790.38353348
scalar OsgEarthNet.uav[32] utilizationEnergyMaintenance 84167.884235382
scalar OsgEarthNet.uav[32] utilizationEnergyCharge 270322.08154297
scalar OsgEarthNet.uav[32] utilizationEnergyOverdrawMission 0
scalar OsgEarthNet.uav[32] utilizationEnergyOverdrawMaintenance 0
scalar OsgEarthNet.uav[32] utilizationCountMissions 59
scalar OsgEarthNet.uav[32] utilizationCountManeuversMission 1232
scalar OsgEarthNet.uav[32] utilizationCountManeuversMaintenance 118
scalar OsgEarthNet.uav[32] utilizationCountChargeState 59
scalar OsgEarthNet.uav[32] utilizationCountOverdrawnAfterMission 0
scalar OsgEarthNet.uav[32] utilizationCountIdleState 18
scalar OsgEarthNet.uav[32] utilizationFail 0
scalar OsgEarthNet.uav[32] simulationTime 259200
scalar OsgEarthNet.uav[33] utilizationSecMission 23370.627593865
scalar OsgEarthNet.uav[33] utilizationSecMaintenance 13913.66803415
scalar OsgEarthNet.uav[33] utilizationSecCharge 137263.70337198
scalar OsgEarthNet.uav[33] utilizationSecIdle 84652
scalar OsgEarthNet.uav[33] utilizationEnergyMission 111950.86737061
scalar OsgEarthNet.uav[33] utilizationEnergyMaintenance 65933.175739288
scalar OsgEarthNet.uav[33] utilizationEnergyCharge 178420.98046875
scalar OsgEarthNet.uav[33] utilizationEnergyOverdrawMission 0
scalar OsgEarthNet.uav[33] utilizationEnergyOverdrawMaintenance 0
scalar OsgEarthNet.uav[33] utilizationCountMissions 39
scalar OsgEarthNet.uav[33] utilizationCountManeuversMission 726
scalar OsgEarthNet.uav[33] utilizationCountManeuversMaintenance 78
scalar OsgEarthNet.uav[33] utilizationCountChargeState 39
scalar OsgEarthNet.uav[33] utilizationCountOverdrawnAfterMission 0
scalar OsgEarthNet.uav[33] utilizationCountIdleState 39
scalar OsgEarthNet.uav[33] utilizationFail 0
scalar OsgEarthNet.uav[33] simulationTime 259200
scalar OsgEarthNet.uav[34] utilizationSecMission 39400.839787469
scalar OsgEarthNet.uav[34] utilizationSecMaintenance 16912.993492342
scalar OsgEarthNet.uav[34] utilizationSecCharge 194802.16822145
scalar OsgEarthNet.uav[34] utilizationSecIdle 8083.9974987391
scalar OsgEarthNet.uav[34] utilizationEnergyMission 190952.62655258
scalar OsgEarthNet.uav[34] utilizationEnergyMaintenance 78320.076286316
scalar OsgEarthNet.uav[34] utilizationEnergyCharge 264154.3012085
scalar OsgEarthNet.uav[34] utilizationEnergyOverdrawMission 0
scalar OsgEarthNet.uav[34] utilizationEnergyOverdrawMaintenance 0
scalar OsgEarthNet.uav[34] utilizationCountMissions 58
scalar OsgEarthNet.uav[34] utilizationCountManeuversMission 1213
scalar OsgEarthNet.uav[34] utilizationCountManeuversMaintenance 116
scalar OsgEarthNet.uav[34] utilizationCountChargeState 58
scalar OsgEarthNet.uav[34] utilizationCountOverdrawnAfterMission 0
scalar OsgEarthNet.uav[34] utilizationCountIdleState 28
scalar OsgEarthNet.uav[34] utilizationFail 0
scalar OsgEarthNet.uav[34] simulationTime 259200
scalar OsgEarthNet.uav[35] utilizationSecMission 40869.024433113
scalar OsgEarthNet.uav[35] utilizationSecMaintenance 16146.370910419
scalar OsgEarthNet.uav[35] utilizationSecCharge 197512.60365647
scalar OsgEarthNet.uav[35] utilizationSecIdle 4672
scalar OsgEarthNet.uav[35] utilizationEnergyMission 195793.01516329
scalar OsgEarthNet.uav[35] utilizationEnergyMaintenance 73788.284049988
scalar OsgEarthNet.uav[35] utilizationEnergyCharge 268087.32519531
scalar OsgEarthNet.uav[35] utilizationEnergyOverdrawMission 0
scalar OsgEarthNet.uav[35] utilizationEnergyOverdrawMaintenance 0
scalar OsgEarthNet.uav[35] utilizationCountMissions 58
scalar OsgEarthNet.uav[35] utilizationCountManeuversMission 1220
scalar OsgEarthNet.uav[35] utilizationCountManeuversMaintenance 115
scalar OsgEarthNet.uav[35] utilizationCountChargeState 58
scalar OsgEarthNet.uav[35] utilizationCountOverdrawnAfterMission 0
scalar OsgEarthNet.uav[35] utilizationCountIdleState 25
scalar OsgEarthNet.uav[35] utilizationFail 0
scalar OsgEarthNet.uav[35] simulationTime 259200
scalar OsgEarthNet.uav[36] utilizationSecMission 18197.134717134
scalar OsgEarthNet.uav[36] utilizationSecMaintenance 11837.210499087
scalar OsgEarthNet.uav[36] utilizationSecCharge 112740
scalar OsgEarthNet.uav[36] utilizationSecIdle 116425.65378378
scalar OsgEarthNet.uav[36] utilizationEnergyMission 89833.254699707
scalar OsgEarthNet.uav[36] utilizationEnergyMaintenance 56840.832702637
scalar OsgEarthNet.uav[36] utilizationEnergyCharge 145516.50195312
scalar OsgEarthNet.uav[36] utilizationEnergyOverdrawMission 0
scalar OsgEarthNet.uav[36] utilizationEnergyOverdrawMaintenance 0
scalar OsgEarthNet.uav[36] utilizationCountMissions 32
scalar OsgEarthNet.uav[36] utilizationCountManeuversMission 619
scalar OsgEarthNet.uav[36] utilizationCountManeuversMaintenance 64
scalar OsgEarthNet.uav[36] utilizationCountChargeState 32
scalar OsgEarthNet.uav[36] utilizationCountOverdrawnAfterMission 0
scalar OsgEarthNet.uav[36] utilizationCountIdleState 33
scalar OsgEarthNet.uav[36] utilizationFail 0
scalar OsgEarthNet.uav[36] simulationTime 259200
scalar OsgEarthNet.uav[37] utilizationSecMission 24139.85107937
scalar OsgEarthNet.uav[37] utilizationSecMaintenance 16962.41211583
scalar OsgEarthNet.uav[37] utilizationSecCharge 158995.7358048
scalar OsgEarthNet.uav[37] utilizationSecIdle 59102
scalar OsgEarthNet.uav[37] utilizationEnergyMission 119113.64593887
scalar OsgEarthNet.uav[37] utilizationEnergyMaintenance 80056.574993134
scalar OsgEarthNet.uav[37] utilizationEnergyCharge 199696.74658203
scalar OsgEarthNet.uav[37] utilizationEnergyOverdrawMission 0
scalar OsgEarthNet.uav[37] utilizationEnergyOverdrawMaintenance 0
scalar OsgEarthNet.uav[37] utilizationCountMissions 49
scalar OsgEarthNet.uav[37] utilizationCountManeuversMission 879
scalar OsgEarthNet.uav[37] utilizationCountManeuversMaintenance 98
scalar OsgEarthNet.uav[37] utilizationCountChargeState 49
scalar OsgEarthNet.uav[37] utilizationCountOverdrawnAfterMission 0
scalar OsgEarthNet.uav[37] utilizationCountIdleState 49
scalar OsgEarthNet.uav[37] utilizationFail 0
scalar OsgEarthNet.uav[37] simulationTime 259200
scalar OsgEarthNet.uav[38] utilizationSecMission 38478.904418441
scalar OsgEarthNet.uav[38] utilizationSecMaintenance 18336.464539431
scalar OsgEarthNet.uav[38] utilizationSecCharge 199092.62904213
scalar OsgEarthNet.uav[38] utilizationSecIdle 3292.001
scalar OsgEarthNet.uav[38] utilizationEnergyMission 186046.55522919
scalar OsgEarthNet.uav[38] utilizationEnergyMaintenance 85770.743881226
scalar OsgEarthNet.uav[38] utilizationEnergyCharge 270877.60302734
scalar OsgEarthNet.uav[38] utilizationEnergyOverdrawMission 0
scalar OsgEarthNet.uav[38] utilizationEnergyOverdrawMaintenance 0
scalar OsgEarthNet.uav[38] utilizationCountMissions 59
scalar OsgEarthNet.uav[38] utilizationCountManeuversMission 1129
scalar OsgEarthNet.uav[38] utilizationCountManeuversMaintenance 118
scalar OsgEarthNet.uav[38] utilizationCountChargeState 59
scalar OsgEarthNet.uav[38] utilizationCountOverdrawnAfterMission 0
scalar OsgEarthNet.uav[38] utilizationCountIdleState 22
scalar OsgEarthNet.uav[38] utilizationFail 0
scalar OsgEarthNet.uav[38] simulationTime 259200
scalar OsgEarthNet.uav[39] utilizationSecMission 18185.001220642
scalar OsgEarthNet.uav[39] utilizationSecMaintenance 13615.249762445
scalar OsgEarthNet.uav[39] utilizationSecCharge 119677.73401691
scalar OsgEarthNet.uav[39] utilizationSecIdle 107722.014
scalar OsgEarthNet.uav[39] utilizationEnergyMission 90757.247314453
scalar OsgEarthNet.uav[39] utilizationEnergyMaintenance 64393.581535339
scalar OsgEarthNet.uav[39] utilizationEnergyCharge 154573.05712891
scalar OsgEarthNet.uav[39] utilizationEnergyOverdrawMission 0
scalar OsgEarthNet.uav[39] utilizationEnergyOverdrawMaintenance 0
scalar OsgEarthNet.uav[39] utilizationCountMissions 34
scalar OsgEarthNet.uav[39] utilizationCountManeuversMission 701
scalar OsgEarthNet.uav[39] utilizationCountManeuversMaintenance 68
scalar OsgEarthNet.uav[39] utilizationCountChargeState 34
scalar OsgEarthNet.uav[39] utilizationCountOverdrawnAfterMission 0
scalar OsgEarthNet.uav[39] utilizationCountIdleState 34
scalar OsgEarthNet.uav[39] utilizationFail 0
scalar OsgEarthNet.uav[39] simulationTime 259200
scalar OsgEarthNet.uav[40] utilizationSecMission 16705.001220642
scalar OsgEarthNet.uav[40] utilizationSecMaintenance 12185.587259927
scalar OsgEarthNet.uav[40] utilizationSecCharge 108840
scalar OsgEarthNet.uav[40] utilizationSecIdle 121469.41051943
scalar OsgEarthNet.uav[40] utilizationEnergyMission 82029.587169647
scalar OsgEarthNet.uav[40] utilizationEnergyMaintenance 58047.106861114
scalar OsgEarthNet.uav[40] utilizationEnergyCharge 140356.97363281
scalar OsgEarthNet.uav[40] utilizationEnergyOverdrawMission 0
scalar OsgEarthNet.uav[40] utilizationEnergyOverdrawMaintenance 0
scalar OsgEarthNet.uav[40] utilizationCountMissions 31
scalar OsgEarthNet.uav[40] utilizationCountManeuversMission 627
scalar OsgEarthNet.uav[40] utilizationCountManeuversMaintenance 62
scalar OsgEarthNet.uav[40] utilizationCountChargeState 31
scalar OsgEarthNet.uav[40] utilizationCountOverdrawnAfterMission 0
scalar OsgEarthNet.uav[40] utilizationCountIdleState 32
scalar OsgEarthNet.uav[40] utilizationFail 0
scalar OsgEarthNet.uav[40] simulationTime 259200
scalar OsgEarthNet.uav[41] utilizationSecMission 21240.057879233
scalar OsgEarthNet.uav[41] utilizationSecMaintenance 15051.499145824
scalar OsgEarthNet.uav[41] utilizationSecCharge 142210
scalar OsgEarthNet.uav[41] utilizationSecIdle 80698.441974943
scalar OsgEarthNet.uav[41] utilizationEnergyMission 103365.85676575
scalar OsgEarthNet.uav[41] utilizationEnergyMaintenance 71988.89264679
scalar OsgEarthNet.uav[41] utilizationEnergyCharge 175246.9753418
scalar OsgEarthNet.uav[41] utilizationEnergyOverdrawMission 0
scalar OsgEarthNet.uav[41] utilizationEnergyOverdrawMaintenance 0
scalar OsgEarthNet.uav[41] utilizationCountMissions 45
scalar OsgEarthNet.uav[41] utilizationCountManeuversMission 711
scalar OsgEarthNet.uav[41] utilizationCountManeuversMaintenance 90
scalar OsgEarthNet.uav[41] utilizationCountChargeState 45
scalar OsgEarthNet.uav[41] utilizationCountOverdrawnAfterMission 0
scalar OsgEarthNet.uav[41] utilizationCountIdleState 46
scalar OsgEarthNet.uav[41] utilizationFail 0
scalar OsgEarthNet.uav[41] simulationTime 259200
scalar OsgEarthNet.uav[42] utilizationSecMission 38845.68359102
scalar OsgEarthNet.uav[42] utilizationSecMaintenance 17625.689672464
scalar OsgEarthNet.uav[42] utilizationSecCharge 196506.62173652
scalar OsgEarthNet.uav[42] utilizationSecIdle 6222.004
scalar OsgEarthNet.uav[42] utilizationEnergyMission 189543.94591522
scalar OsgEarthNet.uav[42] utilizationEnergyMaintenance 81242.222873688
scalar OsgEarthNet.uav[42] utilizationEnergyCharge 267353.27911377
scalar OsgEarthNet.uav[42] utilizationEnergyOverdrawMission 0
scalar OsgEarthNet.uav[42] utilizationEnergyOverdrawMaintenance 0
scalar OsgEarthNet.uav[42] utilizationCountMissions 59
scalar OsgEarthNet.uav[42] utilizationCountManeuversMission 1268
scalar OsgEarthNet.uav[42] utilizationCountManeuversMaintenance 118
scalar OsgEarthNet.uav[42] utilizationCountChargeState 59
scalar OsgEarthNet.uav[42] utilizationCountOverdrawnAfterMission 0
scalar OsgEarthNet.uav[42] utilizationCountIdleState 23
scalar OsgEarthNet.uav[42] utilizationFail 0
scalar OsgEarthNet.uav[42] simulationTime 259200
scalar OsgEarthNet.uav[43] utilizationSecMission 19010.627593865
scalar OsgEarthNet.uav[43] utilizationSecMaintenance 9624.6805265961
scalar OsgEarthNet.uav[43] utilizationSecCharge 105760
scalar OsgEarthNet.uav[43] utilizationSecIdle 124804.69087954
scalar OsgEarthNet.uav[43] utilizationEnergyMission 91137.35684967
scalar OsgEarthNet.uav[43] utilizationEnergyMaintenance 46141.625099182
scalar OsgEarthNet.uav[43] utilizationEnergyCharge 136610.28320312
scalar OsgEarthNet.uav[43] utilizationEnergyOverdrawMission 0
scalar OsgEarthNet.uav[43] utilizationEnergyOverdrawMaintenance 0
scalar OsgEarthNet.uav[43] utilizationCountMissions 30
scalar OsgEarthNet.uav[43] utilizationCountManeuversMission 508
scalar OsgEarthNet.uav[43] utilizationCountManeuversMaintenance 60
scalar OsgEarthNet.uav[43] utilizationCountChargeState 30
scalar OsgEarthNet.uav[43] utilizationCountOverdrawnAfterMission 0
scalar OsgEarthNet.uav[43] utilizationCountIdleState 31
scalar OsgEarthNet.uav[43] utilizationFail 0
scalar OsgEarthNet.uav[43] simulationTime 259200
scalar OsgEarthNet.uav[44] utilizationSecMission 20475.499107123
scalar OsgEarthNet.uav[44] utilizationSecMaintenance 13647.918999596
scalar OsgEarthNet.uav[44] utilizationSecCharge 130254.57289328
scalar OsgEarthNet.uav[44] utilizationSecIdle 94822.008
scalar OsgEarthNet.uav[44] utilizationEnergyMission 98663.690563202
scalar OsgEarthNet.uav[44] utilizationEnergyMaintenance 64799.914878845
scalar OsgEarthNet.uav[44] utilizationEnergyCharge 160800.27075195
scalar OsgEarthNet.uav[44] utilizationEnergyOverdrawMission 0
scalar OsgEarthNet.uav[44] utilizationEnergyOverdrawMaintenance 0
scalar OsgEarthNet.uav[44] utilizationCountMissions 42
scalar OsgEarthNet.uav[44] utilizationCountManeuversMission 614
scalar OsgEarthNet.uav[44] utilizationCountManeuversMaintenance 84
scalar OsgEarthNet.uav[44] utilizationCountChargeState 42
scalar OsgEarthNet.uav[44] utilizationCountOverdrawnAfterMission 0
scalar OsgEarthNet.uav[44] utilizationCountIdleState 42
scalar OsgEarthNet.uav[44] utilizationFail 0
scalar OsgEarthNet.uav[44] simulationTime 259200
scalar OsgEarthNet.uav[45] utilizationSecMission 40186.694368062
scalar OsgEarthNet.uav[45] utilizationSecMaintenance 17418.665889098
scalar OsgEarthNet.uav[45] utilizationSecCharge 198142.63874284
scalar OsgEarthNet.uav[45] utilizationSecIdle 3452
scalar OsgEarthNet.uav[45] utilizationEnergyMission 197675.06055069
scalar OsgEarthNet.uav[45] utilizationEnergyMaintenance 79243.222366333
scalar OsgEarthNet.uav[45] utilizationEnergyCharge 271088.97839355
scalar OsgEarthNet.uav[45] utilizationEnergyOverdrawMission 0
scalar OsgEarthNet.uav[45] utilizationEnergyOverdrawMaintenance 0
scalar OsgEarthNet.uav[45] utilizationCountMissions 60
scalar OsgEarthNet.uav[45] utilizationCountManeuversMission 1273
scalar OsgEarthNet.uav[45] utilizationCountManeuversMaintenance 120
scalar OsgEarthNet.uav[45] utilizationCountChargeState 60
scalar OsgEarthNet.uav[45] utilizationCountOverdrawnAfterMission 0
scalar OsgEarthNet.uav[45] utilizationCountIdleState 20
scalar OsgEarthNet.uav[45] utilizationFail 0
scalar OsgEarthNet.uav[45] simulationTime 259200
scalar OsgEarthNet.uav[46] utilizationSecMission 21209.377288704
scalar OsgEarthNet.uav[46] utilizationSecMaintenance 13079.863887028
scalar OsgEarthNet.uav[46] utilizationSecCharge 123158.74082427
scalar OsgEarthNet.uav[46] utilizationSecIdle 101752.017
scalar OsgEarthNet.uav[46] utilizationEnergyMission 101840.97994995
scalar OsgEarthNet.uav[46] utilizationEnergyMaintenance 61700.944656372
scalar OsgEarthNet.uav[46] utilizationEnergyCharge 158816.50219727
scalar OsgEarthNet.uav[46] utilizationEnergyOverdrawMission 0
scalar OsgEarthNet.uav[46] utilizationEnergyOverdrawMaintenance 0
scalar OsgEarthNet.uav[46] utilizationCountMissions 36
scalar OsgEarthNet.uav[46] utilizationCountManeuversMission 670
scalar OsgEarthNet.uav[46] utilizationCountManeuversMaintenance 72
scalar OsgEarthNet.uav[46] utilizationCountChargeState 36
scalar OsgEarthNet.uav[46] utilizationCountOverdrawnAfterMission 0
scalar OsgEarthNet.uav[46] utilizationCountIdleState 36
scalar OsgEarthNet.uav[46] utilizationFail 0
scalar OsgEarthNet.uav[46] simulationTime 259200
scalar OsgEarthNet.uav[47] utilizationSecMission 22163.707781108
scalar OsgEarthNet.uav[47] utilizationSecMaintenance 16052.422998397
scalar OsgEarthNet.uav[47] utilizationSecCharge 150070
scalar OsgEarthNet.uav[47] utilizationSecIdle 70913.868220495
scalar OsgEarthNet.uav[47] utilizationEnergyMission 107292.37998581
scalar OsgEarthNet.uav[47] utilizationEnergyMaintenance 76211.071430206
scalar OsgEarthNet.uav[47] utilizationEnergyCharge 185221.83154297
scalar OsgEarthNet.uav[47] utilizationEnergyOverdrawMission 0
scalar OsgEarthNet.uav[47] utilizationEnergyOverdrawMaintenance 0
scalar OsgEarthNet.uav[47] utilizationCountMissions 47
scalar OsgEarthNet.uav[47] utilizationCountManeuversMission 787
scalar OsgEarthNet.uav[47] utilizationCountManeuversMaintenance 94
scalar OsgEarthNet.uav[47] utilizationCountChargeState 47
scalar OsgEarthNet.uav[47] utilizationCountOverdrawnAfterMission 0
scalar OsgEarthNet.uav[47] utilizationCountIdleState 48
scalar OsgEarthNet.uav[47] utilizationFail 0
scalar OsgEarthNet.uav[47] simulationTime 259200
scalar OsgEarthNet.uav[48] utilizationSecMission 40512.395888223
scalar OsgEarthNet.uav[48] utilizationSecMaintenance 16745.217156386
scalar OsgEarthNet.uav[48] utilizationSecCharge 197350.38595539
scalar OsgEarthNet.uav[48] utilizationSecIdle 4592
scalar OsgEarthNet.uav[48] utilizationEnergyMission 193621.2675209
scalar OsgEarthNet.uav[48] utilizationEnergyMaintenance 77152.986804962
scalar OsgEarthNet.uav[48] utilizationEnergyCharge 267606.52416992
scalar OsgEarthNet.uav[48] utilizationEnergyOverdrawMission 0
scalar OsgEarthNet.uav[48] utilizationEnergyOverdrawMaintenance 0
scalar OsgEarthNet.uav[48] utilizationCountMissions 59
scalar OsgEarthNet.uav[48] utilizationCountManeuversMission 1136
scalar OsgEarthNet.uav[48] utilizationCountManeuversMaintenance 118
scalar OsgEarthNet.uav[48] utilizationCountChargeState 59
scalar OsgEarthNet.uav[48] utilizationCountOverdrawnAfterMission 0
scalar OsgEarthNet.uav[48] utilizationCountIdleState 26
scalar OsgEarthNet.uav[48] utilizationFail 0
scalar OsgEarthNet.uav[48] simulationTime 259200
scalar OsgEarthNet.uav[49] utilizationSecMission 19697.868944793
scalar OsgEarthNet.uav[49] utilizationSecMaintenance 12289.746856668
scalar OsgEarthNet.uav[49] utilizationSecCharge 117150.37119854
scalar OsgEarthNet.uav[49] utilizationSecIdle 110062.012
scalar OsgEarthNet.uav[49] utilizationEnergyMission 96323.646575928
scalar OsgEarthNet.uav[49] utilizationEnergyMaintenance 57859.372520447
scalar OsgEarthNet.uav[49] utilizationEnergyCharge 151692.20068359
scalar OsgEarthNet.uav[49] utilizationEnergyOverdrawMission 0
scalar OsgEarthNet.uav[49] utilizationEnergyOverdrawMaintenance 0
scalar OsgEarthNet.uav[49] utilizationCountMissions 34
scalar OsgEarthNet.uav[49] utilizationCountManeuversMission 651
scalar OsgEarthNet.uav[49] utilizationCountManeuversMaintenance 68
scalar OsgEarthNet.uav[49] utilizationCountChargeState 34
scalar OsgEarthNet.uav[49] utilizationCountOverdrawnAfterMission 0
scalar OsgEarthNet.uav[49] utilizationCountIdleState 34
scalar OsgEarthNet.uav[49] utilizationFail 0
scalar OsgEarthNet.uav[49] simulationTime 259200
scalar OsgEarthNet.uav[50] utilizationSecMission 19370.627593865
scalar OsgEarthNet.uav[50] utilizationSecMaintenance 10246.846897384
scalar OsgEarthNet.uav[50] utilizationSecCharge 110130
scalar OsgEarthNet.uav[50] utilizationSecIdle 119452.52450875
scalar OsgEarthNet.uav[50] utilizationEnergyMission 93610.673622131
scalar OsgEarthNet.uav[50] utilizationEnergyMaintenance 48983.880237579
scalar OsgEarthNet.uav[50] utilizationEnergyCharge 142720.25146484
scalar OsgEarthNet.uav[50] utilizationEnergyOverdrawMission 0
scalar OsgEarthNet.uav[50] utilizationEnergyOverdrawMaintenance 0
scalar OsgEarthNet.uav[50] utilizationCountMissions 31
scalar OsgEarthNet.uav[50] utilizationCountManeuversMission 526
scalar OsgEarthNet.uav[50] utilizationCountManeuversMaintenance 62
scalar OsgEarthNet.uav[50] utilizationCountChargeState 31
scalar OsgEarthNet.uav[50] utilizationCountOverdrawnAfterMission 0
scalar OsgEarthNet.uav[50] utilizationCountIdleState 32
scalar OsgEarthNet.uav[50] utilizationFail 0
scalar OsgEarthNet.uav[50] simulationTime 259200
scalar OsgEarthNet.uav[51] utilizationSecMission 23723.979122233
scalar OsgEarthNet.uav[51] utilizationSecMaintenance 16515.055892094
scalar OsgEarthNet.uav[51] utilizationSecCharge 156580
scalar OsgEarthNet.uav[51] utilizationSecIdle 62380.963985674
scalar OsgEarthNet.uav[51] utilizationEnergyMission 115343.96941906
scalar OsgEarthNet.uav[51] utilizationEnergyMaintenance 79099.000370026
scalar OsgEarthNet.uav[51] utilizationEnergyCharge 191524.85571289
scalar OsgEarthNet.uav[51] utilizationEnergyOverdrawMission 0
scalar OsgEarthNet.uav[51] utilizationEnergyOverdrawMaintenance 0
scalar OsgEarthNet.uav[51] utilizationCountMissions 50
scalar OsgEarthNet.uav[51] utilizationCountManeuversMission 746
scalar OsgEarthNet.uav[51] utilizationCountManeuversMaintenance 101
scalar OsgEarthNet.uav[51] utilizationCountChargeState 50
scalar OsgEarthNet.uav[51] utilizationCountOverdrawnAfterMission 0
scalar OsgEarthNet.uav[51] utilizationCountIdleState 51
scalar OsgEarthNet.uav[51] utilizationFail 0
scalar OsgEarthNet.uav[51] simulationTime 259200
scalar OsgEarthNet.uav[52] utilizationSecMission 39832.014199661
scalar OsgEarthNet.uav[52] utilizationSecMaintenance 16590.121446869
scalar OsgEarthNet.uav[52] utilizationSecCharge 196685.86035347
scalar OsgEarthNet.uav[52] utilizationSecIdle 6092.003
scalar OsgEarthNet.uav[52] utilizationEnergyMission 190926.57381058
scalar OsgEarthNet.uav[52] utilizationEnergyMaintenance 75425.992332458
scalar OsgEarthNet.uav[52] utilizationEnergyCharge 266876.24023438
scalar OsgEarthNet.uav[52] utilizationEnergyOverdrawMission 0
scalar OsgEarthNet.uav[52] utilizationEnergyOverdrawMaintenance 0
scalar OsgEarthNet.uav[52] utilizationCountMissions 58
scalar OsgEarthNet.uav[52] utilizationCountManeuversMission 1053
scalar OsgEarthNet.uav[52] utilizationCountManeuversMaintenance 116
scalar OsgEarthNet.uav[52] utilizationCountChargeState 58
scalar OsgEarthNet.uav[52] utilizationCountOverdrawnAfterMission 0
scalar OsgEarthNet.uav[52] utilizationCountIdleState 30
scalar OsgEarthNet.uav[52] utilizationFail 0
scalar OsgEarthNet.uav[52] simulationTime 259200
scalar OsgEarthNet.uav[53] utilizationSecMission 21288.861211203
scalar OsgEarthNet.uav[53] utilizationSecMaintenance 12631.875275272
scalar OsgEarthNet.uav[53] utilizationSecCharge 123825.8703874
scalar OsgEarthNet.uav[53] utilizationSecIdle 101453.39212613
scalar OsgEarthNet.uav[53] utilizationEnergyMission 104454.46674347
scalar OsgEarthNet.uav[53] utilizationEnergyMaintenance 59305.022853851
scalar OsgEarthNet.uav[53] utilizationEnergyCharge 160306.52124023
scalar OsgEarthNet.uav[53] utilizationEnergyOverdrawMission 0
scalar OsgEarthNet.uav[53] utilizationEnergyOverdrawMaintenance 0
scalar OsgEarthNet.uav[53] utilizationCountMissions 36
scalar OsgEarthNet.uav[53] utilizationCountManeuversMission 683
scalar OsgEarthNet.uav[53] utilizationCountManeuversMaintenance 72
scalar OsgEarthNet.uav[53] utilizationCountChargeState 36
scalar OsgEarthNet.uav[53] utilizationCountOverdrawnAfterMission 0
scalar OsgEarthNet.uav[53] utilizationCountIdleState 36
scalar OsgEarthNet.uav[53] utilizationFail 0
scalar OsgEarthNet.uav[53] simulationTime 259200
scalar OsgEarthNet.uav[54] utilizationSecMission 25754.574175864
scalar OsgEarthNet.uav[54] utilizationSecMaintenance 16747.442350997
scalar OsgEarthNet.uav[54] utilizationSecCharge 161025.98247314
scalar OsgEarthNet.uav[54] utilizationSecIdle 55672
scalar OsgEarthNet.uav[54] utilizationEnergyMission 125970.36650467
scalar OsgEarthNet.uav[54] utilizationEnergyMaintenance 80058.353813171
scalar OsgEarthNet.uav[54] utilizationEnergyCharge 201548.11395264
scalar OsgEarthNet.uav[54] utilizationEnergyOverdrawMission 0
scalar OsgEarthNet.uav[54] utilizationEnergyOverdrawMaintenance 0
scalar OsgEarthNet.uav[54] utilizationCountMissions 50
scalar OsgEarthNet.uav[54] utilizationCountManeuversMission 846
scalar OsgEarthNet.uav[54] utilizationCountManeuversMaintenance 99
scalar OsgEarthNet.uav[54] utilizationCountChargeState 50
scalar OsgEarthNet.uav[54] utilizationCountOverdrawnAfterMission 0
scalar OsgEarthNet.uav[54] utilizationCountIdleState 50
scalar OsgEarthNet.uav[54] utilizationFail 0
scalar OsgEarthNet.uav[54] simulationTime 259200
scalar OsgEarthNet.uav[55] utilizationSecMission 40335.189184321
scalar OsgEarthNet.uav[55] utilizationSecMaintenance 16222.807815679
scalar OsgEarthNet.uav[55] utilizationSecCharge 197290
scalar OsgEarthNet.uav[55] utilizationSecIdle 5352.002
scalar OsgEarthNet.uav[55] utilizationEnergyMission 193370.31122098
scalar OsgEarthNet.uav[55] utilizationEnergyMaintenance 75522.810081482
scalar OsgEarthNet.uav[55] utilizationEnergyCharge 268435.15332031
scalar OsgEarthNet.uav[55] utilizationEnergyOverdrawMission 0
scalar OsgEarthNet.uav[55] utilizationEnergyOverdrawMaintenance 0
scalar OsgEarthNet.uav[55] utilizationCountMissions 58
scalar OsgEarthNet.uav[55] utilizationCountManeuversMission 1200
scalar OsgEarthNet.uav[55] utilizationCountManeuversMaintenance 117
scalar OsgEarthNet.uav[55] utilizationCountChargeState 58
scalar OsgEarthNet.uav[55] utilizationCountOverdrawnAfterMission 0
scalar OsgEarthNet.uav[55] utilizationCountIdleState 27
scalar OsgEarthNet.uav[55] utilizationFail 0
scalar OsgEarthNet.uav[55] simulationTime 259200
scalar OsgEarthNet.uav[56] utilizationSecMission 19068.752136124
scalar OsgEarthNet.uav[56] utilizationSecMaintenance 11194.933270674
scalar OsgEarthNet.uav[56] utilizationSecCharge 109713.86571015
scalar OsgEarthNet.uav[56] utilizationSecIdle 119222.44788306
scalar OsgEarthNet.uav[56] utilizationEnergyMission 92552.688468933
scalar OsgEarthNet.uav[56] utilizationEnergyMaintenance 52634.533355713
scalar OsgEarthNet.uav[56] utilizationEnergyCharge 141725.36392212
scalar OsgEarthNet.uav[56] utilizationEnergyOverdrawMission 0
scalar OsgEarthNet.uav[56] utilizationEnergyOverdrawMaintenance 0
scalar OsgEarthNet.uav[56] utilizationCountMissions 32
scalar OsgEarthNet.uav[56] utilizationCountManeuversMission 589
scalar OsgEarthNet.uav[56] utilizationCountManeuversMaintenance 64
scalar OsgEarthNet.uav[56] utilizationCountChargeState 32
scalar OsgEarthNet.uav[56] utilizationCountOverdrawnAfterMission 0
scalar OsgEarthNet.uav[56] utilizationCountIdleState 32
scalar OsgEarthNet.uav[56] utilizationFail 0
scalar OsgEarthNet.uav[56] simulationTime 259200
scalar OsgEarthNet.uav[57] utilizationSecMission 22017.110047729
scalar OsgEarthNet.uav[57] utilizationSecMaintenance 15939.533199302
scalar OsgEarthNet.uav[57] utilizationSecCharge 148531.35075297
scalar OsgEarthNet.uav[57] utilizationSecIdle 72712.005
scalar OsgEarthNet.uav[57] utilizationEnergyMission 107706.5838356
scalar OsgEarthNet.uav[57] utilizationEnergyMaintenance 76007.78294754
scalar OsgEarthNet.uav[57] utilizationEnergyCharge 184002.19506836
scalar OsgEarthNet.uav[57] utilizationEnergyOverdrawMission 0
scalar OsgEarthNet.uav[57] utilizationEnergyOverdrawMaintenance 0
scalar OsgEarthNet.uav[57] utilizationCountMissions 47
scalar OsgEarthNet.uav[57] utilizationCountManeuversMission 772
scalar OsgEarthNet.uav[57] utilizationCountManeuversMaintenance 94
scalar OsgEarthNet.uav[57] utilizationCountChargeState 47
scalar OsgEarthNet.uav[57] utilizationCountOverdrawnAfterMission 0
scalar OsgEarthNet.uav[57] utilizationCountIdleState 47
scalar OsgEarthNet.uav[57] utilizationFail 0
scalar OsgEarthNet.uav[57] simulationTime 259200
scalar OsgEarthNet.uav[58] utilizationSecMission 38587.578262139
scalar OsgEarthNet.uav[58] utilizationSecMaintenance 18149.382911208
scalar OsgEarthNet.uav[58] utilizationSecCharge 197993.61247936
scalar OsgEarthNet.uav[58] utilizationSecIdle 4469.4253472904
scalar OsgEarthNet.uav[58] utilizationEnergyMission 188402.50300217
scalar OsgEarthNet.uav[58] utilizationEnergyMaintenance 83260.767242432
scalar OsgEarthNet.uav[58] utilizationEnergyCharge 270110.37719727
scalar OsgEarthNet.uav[58] utilizationEnergyOverdrawMission 0
scalar OsgEarthNet.uav[58] utilizationEnergyOverdrawMaintenance 0
scalar OsgEarthNet.uav[58] utilizationCountMissions 59
scalar OsgEarthNet.uav[58] utilizationCountManeuversMission 1267
scalar OsgEarthNet.uav[58] utilizationCountManeuversMaintenance 118
scalar OsgEarthNet.uav[58] utilizationCountChargeState 59
scalar OsgEarthNet.uav[58] utilizationCountOverdrawnAfterMission 0
scalar OsgEarthNet.uav[58] utilizationCountIdleState 17
scalar OsgEarthNet.uav[58] utilizationFail 0
scalar OsgEarthNet.uav[58] simulationTime 259200
scalar OsgEarthNet.uav[59] utilizationSecMission 26028.015102527
scalar OsgEarthNet.uav[59] utilizationSecMaintenance 13939.983897473
scalar OsgEarthNet.uav[59] utilizationSecCharge 147250
scalar OsgEarthNet.uav[59] utilizationSecIdle 71982
scalar OsgEarthNet.uav[59] utilizationEnergyMission 123852.84413528
scalar OsgEarthNet.uav[59] utilizationEnergyMaintenance 66167.157231247
scalar OsgEarthNet.uav[59] utilizationEnergyCharge 189711.8828125
scalar OsgEarthNet.uav[59] utilizationEnergyOverdrawMission 0
scalar OsgEarthNet.uav[59] utilizationEnergyOverdrawMaintenance 0
scalar OsgEarthNet.uav[59] utilizationCountMissions 42
scalar OsgEarthNet.uav[59] utilizationCountManeuversMission 728
scalar OsgEarthNet.uav[59] utilizationCountManeuversMaintenance 84
scalar OsgEarthNet.uav[59] utilizationCountChargeState 42
scalar OsgEarthNet.uav[59] utilizationCountOverdrawnAfterMission 0
scalar OsgEarthNet.uav[59] utilizationCountIdleState 43
scalar OsgEarthNet.uav[59] utilizationFail 0
scalar OsgEarthNet.uav[59] simulationTime 259200
scalar OsgEarthNet.uav[60] utilizationSecMission 20255.884411973
scalar OsgEarthNet.uav[60] utilizationSecMaintenance 15127.670473915
scalar OsgEarthNet.uav[60] utilizationSecCharge 132144.30429237
scalar OsgEarthNet.uav[60] utilizationSecIdle 91672.139821739
scalar OsgEarthNet.uav[60] utilizationEnergyMission 99044.586601257
scalar OsgEarthNet.uav[60] utilizationEnergyMaintenance 71663.665699005
scalar OsgEarthNet.uav[60] utilizationEnergyCharge 171844.74584961
scalar OsgEarthNet.uav[60] utilizationEnergyOverdrawMission 0
scalar OsgEarthNet.uav[60] utilizationEnergyOverdrawMaintenance 0
scalar OsgEarthNet.uav[60] utilizationCountMissions 38
scalar OsgEarthNet.uav[60] utilizationCountManeuversMission 774
scalar OsgEarthNet.uav[60] utilizationCountManeuversMaintenance 76
scalar OsgEarthNet.uav[60] utilizationCountChargeState 38
scalar OsgEarthNet.uav[60] utilizationCountOverdrawnAfterMission 0
scalar OsgEarthNet.uav[60] utilizationCountIdleState 38
scalar OsgEarthNet.uav[60] utilizationFail 0
scalar OsgEarthNet.uav[60] simulationTime 259200
scalar OsgEarthNet.uav[61] utilizationSecMission 25098.033338901
scalar OsgEarthNet.uav[61] utilizationSecMaintenance 16206.029071843
scalar OsgEarthNet.uav[61] utilizationSecCharge 156709.56421895
scalar OsgEarthNet.uav[61] utilizationSecIdle 61186.372370302
scalar OsgEarthNet.uav[61] utilizationEnergyMission 123075.52878952
scalar OsgEarthNet.uav[61] utilizationEnergyMaintenance 76652.723693848
scalar OsgEarthNet.uav[61] utilizationEnergyCharge 199016.86914062
scalar OsgEarthNet.uav[61] utilizationEnergyOverdrawMission 0
scalar OsgEarthNet.uav[61] utilizationEnergyOverdrawMaintenance 0
scalar OsgEarthNet.uav[61] utilizationCountMissions 47
scalar OsgEarthNet.uav[61] utilizationCountManeuversMission 869
scalar OsgEarthNet.uav[61] utilizationCountManeuversMaintenance 94
scalar OsgEarthNet.uav[61] utilizationCountChargeState 47
scalar OsgEarthNet.uav[61] utilizationCountOverdrawnAfterMission 0
scalar OsgEarthNet.uav[61] utilizationCountIdleState 47
scalar OsgEarthNet.uav[61] utilizationFail 0
scalar OsgEarthNet.uav[61] simulationTime 259200
scalar OsgEarthNet.uav[62] utilizationSecMission 39637.506453829
scalar OsgEarthNet.uav[62] utilizationSecMaintenance 17572.985543228
scalar OsgEarthNet.uav[62] utilizationSecCharge 198140.28738903
scalar OsgEarthNet.uav[62] utilizationSecIdle 3849.2196139157
scalar OsgEarthNet.uav[62] utilizationEnergyMission 188869.74822998
scalar OsgEarthNet.uav[62] utilizationEnergyMaintenance 81576.950901032
scalar OsgEarthNet.uav[62] utilizationEnergyCharge 268821.40625
scalar OsgEarthNet.uav[62] utilizationEnergyOverdrawMission 0
scalar OsgEarthNet.uav[62] utilizationEnergyOverdrawMaintenance 0
scalar OsgEarthNet.uav[62] utilizationCountMissions 59
scalar OsgEarthNet.uav[62] utilizationCountManeuversMission 1095
scalar OsgEarthNet.uav[62] utilizationCountManeuversMaintenance 118
scalar OsgEarthNet.uav[62] utilizationCountChargeState 59
scalar OsgEarthNet.uav[62] utilizationCountOverdrawnAfterMission 0
scalar OsgEarthNet.uav[62] utilizationCountIdleState 26
scalar OsgEarthNet.uav[62] utilizationFail 0
scalar OsgEarthNet.uav[62] simulationTime 259200
scalar OsgEarthNet.uav[63] utilizationSecMission 21319.635327455
scalar OsgEarthNet.uav[63] utilizationSecMaintenance 12784.669921363
scalar OsgEarthNet.uav[63] utilizationSecCharge 124693.68875118
scalar OsgEarthNet.uav[63] utilizationSecIdle 100402.005
scalar OsgEarthNet.uav[63] utilizationEnergyMission 104302.8707428
scalar OsgEarthNet.uav[63] utilizationEnergyMaintenance 60568.021560669
scalar OsgEarthNet.uav[63] utilizationEnergyCharge 161784.37402344
scalar OsgEarthNet.uav[63] utilizationEnergyOverdrawMission 0
scalar OsgEarthNet.uav[63] utilizationEnergyOverdrawMaintenance 0
scalar OsgEarthNet.uav[63] utilizationCountMissions 36
scalar OsgEarthNet.uav[63] utilizationCountManeuversMission 671
scalar OsgEarthNet.uav[63] utilizationCountManeuversMaintenance 72
scalar OsgEarthNet.uav[63] utilizationCountChargeState 36
scalar OsgEarthNet.uav[63] utilizationCountOverdrawnAfterMission 0
scalar OsgEarthNet.uav[63] utilizationCountIdleState 36
scalar OsgEarthNet.uav[63] utilizationFail 0
scalar OsgEarthNet.uav[63] simulationTime 259200
scalar OsgEarthNet.uav[64] utilizationSecMission 24642.101855579
scalar OsgEarthNet.uav[64] utilizationSecMaintenance 16330.628136176
scalar OsgEarthNet.uav[64] utilizationSecCharge 160169.95292641
scalar OsgEarthNet.uav[64] utilizationSecIdle 58057.316081831
scalar OsgEarthNet.uav[64] utilizationEnergyMission 119573.06979752
scalar OsgEarthNet.uav[64] utilizationEnergyMaintenance 77427.234451294
scalar OsgEarthNet.uav[64] utilizationEnergyCharge 196913.39794922
scalar OsgEarthNet.uav[64] utilizationEnergyOverdrawMission 0
scalar OsgEarthNet.uav[64] utilizationEnergyOverdrawMaintenance 0
scalar OsgEarthNet.uav[64] utilizationCountMissions 51
scalar OsgEarthNet.uav[64] utilizationCountManeuversMission 682
scalar OsgEarthNet.uav[64] utilizationCountManeuversMaintenance 102
scalar OsgEarthNet.uav[64] utilizationCountChargeState 51
scalar OsgEarthNet.uav[64] utilizationCountOverdrawnAfterMission 0
scalar OsgEarthNet.uav[64] utilizationCountIdleState 51
scalar OsgEarthNet.uav[64] utilizationFail 0
scalar OsgEarthNet.uav[64] simulationTime 259200
scalar OsgEarthNet.uav[65] utilizationSecMission 39242.491873238
scalar OsgEarthNet.uav[65] utilizationSecMaintenance 16483.067901107
[...]
scalar OsgEarthNet.uav[66] utilizationCountMissions 37
scalar OsgEarthNet.uav[66] utilizationCountManeuversMission 657
scalar OsgEarthNet.uav[66] utilizationCountManeuversMaintenance 74
scalar OsgEarthNet.uav[66] utilizationCountChargeState 37
scalar OsgEarthNet.uav[66] utilizationCountOverdrawnAfterMission 0
scalar OsgEarthNet.uav[66] utilizationCountIdleState 37
scalar OsgEarthNet.uav[66] utilizationFail 0
scalar OsgEarthNet.uav[66] simulationTime 259200
scalar OsgEarthNet.uav[67] utilizationSecMission 25285.539942514
scalar OsgEarthNet.uav[67] utilizationSecMaintenance 17087.54914367
scalar OsgEarthNet.uav[67] utilizationSecCharge 160624.90591382
scalar OsgEarthNet.uav[67] utilizationSecIdle 56202.004
scalar OsgEarthNet.uav[67] utilizationEnergyMission 125402.17551041
scalar OsgEarthNet.uav[67] utilizationEnergyMaintenance 80756.603252411
scalar OsgEarthNet.uav[67] utilizationEnergyCharge 202603.82299805
scalar OsgEarthNet.uav[67] utilizationEnergyOverdrawMission 0
scalar OsgEarthNet.uav[67] utilizationEnergyOverdrawMaintenance 0
scalar OsgEarthNet.uav[67] utilizationCountMissions 49
scalar OsgEarthNet.uav[67] utilizationCountManeuversMission 915
scalar OsgEarthNet.uav[67] utilizationCountManeuversMaintenance 98
scalar OsgEarthNet.uav[67] utilizationCountChargeState 49
scalar OsgEarthNet.uav[67] utilizationCountOverdrawnAfterMission 0
scalar OsgEarthNet.uav[67] utilizationCountIdleState 49
scalar OsgEarthNet.uav[67] utilizationFail 0
scalar OsgEarthNet.uav[67] simulationTime 259200
scalar OsgEarthNet.uav[68] utilizationSecMission 40645.000522156
scalar OsgEarthNet.uav[68] utilizationSecMaintenance 15968.793806941
scalar OsgEarthNet.uav[68] utilizationSecCharge 197217.02956049
scalar OsgEarthNet.uav[68] utilizationSecIdle 5369.1751104107
scalar OsgEarthNet.uav[68] utilizationEnergyMission 194281.64247894
scalar OsgEarthNet.uav[68] utilizationEnergyMaintenance 72390.140888214
scalar OsgEarthNet.uav[68] utilizationEnergyCharge 266578.12646484
scalar OsgEarthNet.uav[68] utilizationEnergyOverdrawMission 0
scalar OsgEarthNet.uav[68] utilizationEnergyOverdrawMaintenance 0
scalar OsgEarthNet.uav[68] utilizationCountMissions 58
scalar OsgEarthNet.uav[68] utilizationCountManeuversMission 1220
scalar OsgEarthNet.uav[68] utilizationCountManeuversMaintenance 116
scalar OsgEarthNet.uav[68] utilizationCountChargeState 58
scalar OsgEarthNet.uav[68] utilizationCountOverdrawnAfterMission 0
scalar OsgEarthNet.uav[68] utilizationCountIdleState 28
scalar OsgEarthNet.uav[68] utilizationFail 0
scalar OsgEarthNet.uav[68] simulationTime 259200
scalar OsgEarthNet.uav[69] utilizationSecMission 20054.743181892
scalar OsgEarthNet.uav[69] utilizationSecMaintenance 15283.334025664
scalar OsgEarthNet.uav[69] utilizationSecCharge 132379.91179244
scalar OsgEarthNet.uav[69] utilizationSecIdle 91482.01
scalar OsgEarthNet.uav[69] utilizationEnergyMission 98564.765110016
scalar OsgEarthNet.uav[69] utilizationEnergyMaintenance 72719.697998047
scalar OsgEarthNet.uav[69] utilizationEnergyCharge 171791.6328125
scalar OsgEarthNet.uav[69] utilizationEnergyOverdrawMission 0
scalar OsgEarthNet.uav[69] utilizationEnergyOverdrawMaintenance 0
scalar OsgEarthNet.uav[69] utilizationCountMissions 38
scalar OsgEarthNet.uav[69] utilizationCountManeuversMission 799
scalar OsgEarthNet.uav[69] utilizationCountManeuversMaintenance 76
scalar OsgEarthNet.uav[69] utilizationCountChargeState 38
scalar OsgEarthNet.uav[69] utilizationCountOverdrawnAfterMission 0
scalar OsgEarthNet.uav[69] utilizationCountIdleState 38
scalar OsgEarthNet.uav[69] utilizationFail 0
scalar OsgEarthNet.uav[69] simulationTime 259200
scalar OsgEarthNet.uav[70] utilizationSecMission 21888.196862857
scalar OsgEarthNet.uav[70] utilizationSecMaintenance 14649.800137143
scalar OsgEarthNet.uav[70] utilizationSecCharge 136410
scalar OsgEarthNet.uav[70] utilizationSecIdle 86252.002
scalar OsgEarthNet.uav[70] utilizationEnergyMission 106812.93481749
scalar OsgEarthNet.uav[70] utilizationEnergyMaintenance 69915.446460724
scalar OsgEarthNet.uav[70] utilizationEnergyCharge 175265.75195312
scalar OsgEarthNet.uav[70] utilizationEnergyOverdrawMission 0
scalar OsgEarthNet.uav[70] utilizationEnergyOverdrawMaintenance 0
scalar OsgEarthNet.uav[70] utilizationCountMissions 39
scalar OsgEarthNet.uav[70] utilizationCountManeuversMission 752
scalar OsgEarthNet.uav[70] utilizationCountManeuversMaintenance 79
scalar OsgEarthNet.uav[70] utilizationCountChargeState 39
scalar OsgEarthNet.uav[70] utilizationCountOverdrawnAfterMission 0
scalar OsgEarthNet.uav[70] utilizationCountIdleState 40
scalar OsgEarthNet.uav[70] utilizationFail 0
scalar OsgEarthNet.uav[70] simulationTime 259200
scalar OsgEarthNet.uav[71] utilizationSecMission 23763.212510599
scalar OsgEarthNet.uav[71] utilizationSecMaintenance 16969.282840501
scalar OsgEarthNet.uav[71] utilizationSecCharge 157565.5016489
scalar OsgEarthNet.uav[71] utilizationSecIdle 60902.002
scalar OsgEarthNet.uav[71] utilizationEnergyMission 116602.94779205
scalar OsgEarthNet.uav[71] utilizationEnergyMaintenance 81148.396549225
scalar OsgEarthNet.uav[71] utilizationEnergyCharge 193564.94750977
scalar OsgEarthNet.uav[71] utilizationEnergyOverdrawMission 0
scalar OsgEarthNet.uav[71] utilizationEnergyOverdrawMaintenance 0
scalar OsgEarthNet.uav[71] utilizationCountMissions 51
scalar OsgEarthNet.uav[71] utilizationCountManeuversMission 792
scalar OsgEarthNet.uav[71] utilizationCountManeuversMaintenance 102
scalar OsgEarthNet.uav[71] utilizationCountChargeState 51
scalar OsgEarthNet.uav[71] utilizationCountOverdrawnAfterMission 0
scalar OsgEarthNet.uav[71] utilizationCountIdleState 51
scalar OsgEarthNet.uav[71] utilizationFail 0
scalar OsgEarthNet.uav[71] simulationTime 259200
scalar OsgEarthNet.uav[72] utilizationSecMission 40818.790874677
scalar OsgEarthNet.uav[72] utilizationSecMaintenance 16889.057516537
scalar OsgEarthNet.uav[72] utilizationSecCharge 197374.70034476
scalar OsgEarthNet.uav[72] utilizationSecIdle 4117.4502640309
scalar OsgEarthNet.uav[72] utilizationEnergyMission 196554.51491165
scalar OsgEarthNet.uav[72] utilizationEnergyMaintenance 76985.50963974
scalar OsgEarthNet.uav[72] utilizationEnergyCharge 269336.7432251
scalar OsgEarthNet.uav[72] utilizationEnergyOverdrawMission 0
scalar OsgEarthNet.uav[72] utilizationEnergyOverdrawMaintenance 0
scalar OsgEarthNet.uav[72] utilizationCountMissions 59
scalar OsgEarthNet.uav[72] utilizationCountManeuversMission 1216
scalar OsgEarthNet.uav[72] utilizationCountManeuversMaintenance 118
scalar OsgEarthNet.uav[72] utilizationCountChargeState 59
scalar OsgEarthNet.uav[72] utilizationCountOverdrawnAfterMission 0
scalar OsgEarthNet.uav[72] utilizationCountIdleState 25
scalar OsgEarthNet.uav[72] utilizationFail 0
scalar OsgEarthNet.uav[72] simulationTime 259200
scalar OsgEarthNet.uav[73] utilizationSecMission 24030.627593865
scalar OsgEarthNet.uav[73] utilizationSecMaintenance 14643.796843911
scalar OsgEarthNet.uav[73] utilizationSecCharge 143340
scalar OsgEarthNet.uav[73] utilizationSecIdle 77185.574562224
scalar OsgEarthNet.uav[73] utilizationEnergyMission 116229.7819252
scalar OsgEarthNet.uav[73] utilizationEnergyMaintenance 69447.038017273
scalar OsgEarthNet.uav[73] utilizationEnergyCharge 184762.49462891
scalar OsgEarthNet.uav[73] utilizationEnergyOverdrawMission 0
scalar OsgEarthNet.uav[73] utilizationEnergyOverdrawMaintenance 0
scalar OsgEarthNet.uav[73] utilizationCountMissions 41
scalar OsgEarthNet.uav[73] utilizationCountManeuversMission 759
scalar OsgEarthNet.uav[73] utilizationCountManeuversMaintenance 82
scalar OsgEarthNet.uav[73] utilizationCountChargeState 41
scalar OsgEarthNet.uav[73] utilizationCountOverdrawnAfterMission 0
scalar OsgEarthNet.uav[73] utilizationCountIdleState 42
scalar OsgEarthNet.uav[73] utilizationFail 0
scalar OsgEarthNet.uav[73] simulationTime 259200
scalar OsgEarthNet.uav[74] utilizationSecMission 24981.596702983
scalar OsgEarthNet.uav[74] utilizationSecMaintenance 15900.048694138
scalar OsgEarthNet.uav[74] utilizationSecCharge 155600
scalar OsgEarthNet.uav[74] utilizationSecIdle 62718.353602879
scalar OsgEarthNet.uav[74] utilizationEnergyMission 120060.86288134
scalar OsgEarthNet.uav[74] utilizationEnergyMaintenance 75620.44272995
scalar OsgEarthNet.uav[74] utilizationEnergyCharge 193742.85302734
scalar OsgEarthNet.uav[74] utilizationEnergyOverdrawMission 0
scalar OsgEarthNet.uav[74] utilizationEnergyOverdrawMaintenance 0
scalar OsgEarthNet.uav[74] utilizationCountMissions 48
scalar OsgEarthNet.uav[74] utilizationCountManeuversMission 758
scalar OsgEarthNet.uav[74] utilizationCountManeuversMaintenance 97
scalar OsgEarthNet.uav[74] utilizationCountChargeState 48
scalar OsgEarthNet.uav[74] utilizationCountOverdrawnAfterMission 0
scalar OsgEarthNet.uav[74] utilizationCountIdleState 49
scalar OsgEarthNet.uav[74] utilizationFail 0
scalar OsgEarthNet.uav[74] simulationTime 259200
scalar OsgEarthNet.uav[75] utilizationSecMission 40077.023374451
scalar OsgEarthNet.uav[75] utilizationSecMaintenance 17054.921469941
scalar OsgEarthNet.uav[75] utilizationSecCharge 196431.70393479
scalar OsgEarthNet.uav[75] utilizationSecIdle 5636.3502208215
scalar OsgEarthNet.uav[75] utilizationEnergyMission 190948.33481598
scalar OsgEarthNet.uav[75] utilizationEnergyMaintenance 78341.053394318
scalar OsgEarthNet.uav[75] utilizationEnergyCharge 265873.45800781
scalar OsgEarthNet.uav[75] utilizationEnergyOverdrawMission 0
scalar OsgEarthNet.uav[75] utilizationEnergyOverdrawMaintenance 0
scalar OsgEarthNet.uav[75] utilizationCountMissions 59
scalar OsgEarthNet.uav[75] utilizationCountManeuversMission 1184
scalar OsgEarthNet.uav[75] utilizationCountManeuversMaintenance 118
scalar OsgEarthNet.uav[75] utilizationCountChargeState 59
scalar OsgEarthNet.uav[75] utilizationCountOverdrawnAfterMission 0
scalar OsgEarthNet.uav[75] utilizationCountIdleState 26
scalar OsgEarthNet.uav[75] utilizationFail 0
scalar OsgEarthNet.uav[75] simulationTime 259200
scalar OsgEarthNet.uav[76] utilizationSecMission 22237.868944793
scalar OsgEarthNet.uav[76] utilizationSecMaintenance 14789.007456823
scalar OsgEarthNet.uav[76] utilizationSecCharge 135761.11359838
scalar OsgEarthNet.uav[76] utilizationSecIdle 86412.009
scalar OsgEarthNet.uav[76] utilizationEnergyMission 107984.76434708
scalar OsgEarthNet.uav[76] utilizationEnergyMaintenance 70021.793018341
scalar OsgEarthNet.uav[76] utilizationEnergyCharge 175506.65429688
scalar OsgEarthNet.uav[76] utilizationEnergyOverdrawMission 0
scalar OsgEarthNet.uav[76] utilizationEnergyOverdrawMaintenance 0
scalar OsgEarthNet.uav[76] utilizationCountMissions 39
scalar OsgEarthNet.uav[76] utilizationCountManeuversMission 778
scalar OsgEarthNet.uav[76] utilizationCountManeuversMaintenance 78
scalar OsgEarthNet.uav[76] utilizationCountChargeState 39
scalar OsgEarthNet.uav[76] utilizationCountOverdrawnAfterMission 0
scalar OsgEarthNet.uav[76] utilizationCountIdleState 39
scalar OsgEarthNet.uav[76] utilizationFail 0
scalar OsgEarthNet.uav[76] simulationTime 259200
scalar OsgEarthNet.uav[77] utilizationSecMission 24080.057879233
scalar OsgEarthNet.uav[77] utilizationSecMaintenance 17028.938405736
scalar OsgEarthNet.uav[77] utilizationSecCharge 160320
scalar OsgEarthNet.uav[77] utilizationSecIdle 57771.002715032
scalar OsgEarthNet.uav[77] utilizationEnergyMission 118772.22781754
scalar OsgEarthNet.uav[77] utilizationEnergyMaintenance 80862.320285797
scalar OsgEarthNet.uav[77] utilizationEnergyCharge 198342.56787109
scalar OsgEarthNet.uav[77] utilizationEnergyOverdrawMission 0
scalar OsgEarthNet.uav[77] utilizationEnergyOverdrawMaintenance 0
scalar OsgEarthNet.uav[77] utilizationCountMissions 50
scalar OsgEarthNet.uav[77] utilizationCountManeuversMission 853
scalar OsgEarthNet.uav[77] utilizationCountManeuversMaintenance 100
scalar OsgEarthNet.uav[77] utilizationCountChargeState 50
scalar OsgEarthNet.uav[77] utilizationCountOverdrawnAfterMission 0
scalar OsgEarthNet.uav[77] utilizationCountIdleState 51
scalar OsgEarthNet.uav[77] utilizationFail 0
scalar OsgEarthNet.uav[77] simulationTime 259200
scalar OsgEarthNet.uav[78] utilizationSecMission 39703.873986184
scalar OsgEarthNet.uav[78] utilizationSecMaintenance 17215.772580966
scalar OsgEarthNet.uav[78] utilizationSecCharge 196988.35043285
scalar OsgEarthNet.uav[78] utilizationSecIdle 5292.002
scalar OsgEarthNet.uav[78] utilizationEnergyMission 192801.06079483
scalar OsgEarthNet.uav[78] utilizationEnergyMaintenance 77984.898651123
scalar OsgEarthNet.uav[78] utilizationEnergyCharge 267851.87255859
scalar OsgEarthNet.uav[78] utilizationEnergyOverdrawMission 0
scalar OsgEarthNet.uav[78] utilizationEnergyOverdrawMaintenance 0
scalar OsgEarthNet.uav[78] utilizationCountMissions 59
scalar OsgEarthNet.uav[78] utilizationCountManeuversMission 1288
scalar OsgEarthNet.uav[78] utilizationCountManeuversMaintenance 118
scalar OsgEarthNet.uav[78] utilizationCountChargeState 59
scalar OsgEarthNet.uav[78] utilizationCountOverdrawnAfterMission 0
scalar OsgEarthNet.uav[78] utilizationCountIdleState 26
scalar OsgEarthNet.uav[78] utilizationFail 0
scalar OsgEarthNet.uav[78] simulationTime 259200
scalar OsgEarthNet.uav[79] utilizationSecMission 25433.019129107
scalar OsgEarthNet.uav[79] utilizationSecMaintenance 14066.978260163
scalar OsgEarthNet.uav[79] utilizationSecCharge 141417.99561073
scalar OsgEarthNet.uav[79] utilizationSecIdle 78282.006
scalar OsgEarthNet.uav[79] utilizationEnergyMission 121236.92120361
scalar OsgEarthNet.uav[79] utilizationEnergyMaintenance 66273.230419159
scalar OsgEarthNet.uav[79] utilizationEnergyCharge 182837.07897949
scalar OsgEarthNet.uav[79] utilizationEnergyOverdrawMission 0
scalar OsgEarthNet.uav[79] utilizationEnergyOverdrawMaintenance 0
scalar OsgEarthNet.uav[79] utilizationCountMissions 41
scalar OsgEarthNet.uav[79] utilizationCountManeuversMission 742
scalar OsgEarthNet.uav[79] utilizationCountManeuversMaintenance 82
scalar OsgEarthNet.uav[79] utilizationCountChargeState 41
scalar OsgEarthNet.uav[79] utilizationCountOverdrawnAfterMission 0
scalar OsgEarthNet.uav[79] utilizationCountIdleState 41
scalar OsgEarthNet.uav[79] utilizationFail 0
scalar OsgEarthNet.uav[79] simulationTime 259200
scalar OsgEarthNet.uav[80] utilizationSecMission 39871.267436382
scalar OsgEarthNet.uav[80] utilizationSecMaintenance 17816.731563618
scalar OsgEarthNet.uav[80] utilizationSecCharge 198870
scalar OsgEarthNet.uav[80] utilizationSecIdle 2642
scalar OsgEarthNet.uav[80] utilizationEnergyMission 192555.48616028
scalar OsgEarthNet.uav[80] utilizationEnergyMaintenance 81735.208439318
scalar OsgEarthNet.uav[80] utilizationEnergyCharge 269649.38671875
scalar OsgEarthNet.uav[80] utilizationEnergyOverdrawMission 0
scalar OsgEarthNet.uav[80] utilizationEnergyOverdrawMaintenance 0
scalar OsgEarthNet.uav[80] utilizationCountMissions 60
scalar OsgEarthNet.uav[80] utilizationCountManeuversMission 1293
scalar OsgEarthNet.uav[80] utilizationCountManeuversMaintenance 119
scalar OsgEarthNet.uav[80] utilizationCountChargeState 59
scalar OsgEarthNet.uav[80] utilizationCountOverdrawnAfterMission 0
scalar OsgEarthNet.uav[80] utilizationCountIdleState 25
scalar OsgEarthNet.uav[80] utilizationFail 0
scalar OsgEarthNet.uav[80] simulationTime 259200
scalar OsgEarthNet.uav[81] utilizationSecMission 29562.30113606
scalar OsgEarthNet.uav[81] utilizationSecMaintenance 15831.931079965
scalar OsgEarthNet.uav[81] utilizationSecCharge 169709.33752275
scalar OsgEarthNet.uav[81] utilizationSecIdle 44096.429261223
scalar OsgEarthNet.uav[81] utilizationEnergyMission 143934.11461639
scalar OsgEarthNet.uav[81] utilizationEnergyMaintenance 74871.403549194
scalar OsgEarthNet.uav[81] utilizationEnergyCharge 217489.85791016
scalar OsgEarthNet.uav[81] utilizationEnergyOverdrawMission 0
scalar OsgEarthNet.uav[81] utilizationEnergyOverdrawMaintenance 0
scalar OsgEarthNet.uav[81] utilizationCountMissions 52
scalar OsgEarthNet.uav[81] utilizationCountManeuversMission 852
scalar OsgEarthNet.uav[81] utilizationCountManeuversMaintenance 104
scalar OsgEarthNet.uav[81] utilizationCountChargeState 52
scalar OsgEarthNet.uav[81] utilizationCountOverdrawnAfterMission 0
scalar OsgEarthNet.uav[81] utilizationCountIdleState 45
scalar OsgEarthNet.uav[81] utilizationFail 0
scalar OsgEarthNet.uav[81] simulationTime 259200
scalar OsgEarthNet.uav[82] utilizationSecMission 39436.846533631
scalar OsgEarthNet.uav[82] utilizationSecMaintenance 17064.122192369
scalar OsgEarthNet.uav[82] utilizationSecCharge 196787.025274
scalar OsgEarthNet.uav[82] utilizationSecIdle 5912.005
scalar OsgEarthNet.uav[82] utilizationEnergyMission 191479.96355057
scalar OsgEarthNet.uav[82] utilizationEnergyMaintenance 78728.843753815
scalar OsgEarthNet.uav[82] utilizationEnergyCharge 268475.05371094
scalar OsgEarthNet.uav[82] utilizationEnergyOverdrawMission 0
scalar OsgEarthNet.uav[82] utilizationEnergyOverdrawMaintenance 0
scalar OsgEarthNet.uav[82] utilizationCountMissions 59
scalar OsgEarthNet.uav[82] utilizationCountManeuversMission 1316
scalar OsgEarthNet.uav[82] utilizationCountManeuversMaintenance 118
scalar OsgEarthNet.uav[82] utilizationCountChargeState 59
scalar OsgEarthNet.uav[82] utilizationCountOverdrawnAfterMission 0
scalar OsgEarthNet.uav[82] utilizationCountIdleState 20
scalar OsgEarthNet.uav[82] utilizationFail 0
scalar OsgEarthNet.uav[82] simulationTime 259200
scalar OsgEarthNet.uav[83] utilizationSecMission 38450.540524491
scalar OsgEarthNet.uav[83] utilizationSecMaintenance 17560.021934915
scalar OsgEarthNet.uav[83] utilizationSecCharge 195380
scalar OsgEarthNet.uav[83] utilizationSecIdle 7809.4365405945
scalar OsgEarthNet.uav[83] utilizationEnergyMission 185339.98940857
scalar OsgEarthNet.uav[83] utilizationEnergyMaintenance 82245.770542145
scalar OsgEarthNet.uav[83] utilizationEnergyCharge 266622.19165039
scalar OsgEarthNet.uav[83] utilizationEnergyOverdrawMission 0
scalar OsgEarthNet.uav[83] utilizationEnergyOverdrawMaintenance 0
scalar OsgEarthNet.uav[83] utilizationCountMissions 58
scalar OsgEarthNet.uav[83] utilizationCountManeuversMission 1200
scalar OsgEarthNet.uav[83] utilizationCountManeuversMaintenance 117
scalar OsgEarthNet.uav[83] utilizationCountChargeState 58
scalar OsgEarthNet.uav[83] utilizationCountOverdrawnAfterMission 0
scalar OsgEarthNet.uav[83] utilizationCountIdleState 24
scalar OsgEarthNet.uav[83] utilizationFail 0
scalar OsgEarthNet.uav[83] simulationTime 259200
scalar OsgEarthNet.uav[84] utilizationSecMission 23263.707781108
scalar OsgEarthNet.uav[84] utilizationSecMaintenance 16843.398702362
scalar OsgEarthNet.uav[84] utilizationSecCharge 156770
scalar OsgEarthNet.uav[84] utilizationSecIdle 62322.89251653
scalar OsgEarthNet.uav[84] utilizationEnergyMission 114618.8997345
scalar OsgEarthNet.uav[84] utilizationEnergyMaintenance 80444.585521698
scalar OsgEarthNet.uav[84] utilizationEnergyCharge 194172.07617188
scalar OsgEarthNet.uav[84] utilizationEnergyOverdrawMission 0
scalar OsgEarthNet.uav[84] utilizationEnergyOverdrawMaintenance 0
scalar OsgEarthNet.uav[84] utilizationCountMissions 49
scalar OsgEarthNet.uav[84] utilizationCountManeuversMission 842
scalar OsgEarthNet.uav[84] utilizationCountManeuversMaintenance 98
scalar OsgEarthNet.uav[84] utilizationCountChargeState 49
scalar OsgEarthNet.uav[84] utilizationCountOverdrawnAfterMission 0
scalar OsgEarthNet.uav[84] utilizationCountIdleState 50
scalar OsgEarthNet.uav[84] utilizationFail 0
scalar OsgEarthNet.uav[84] simulationTime 259200
scalar OsgEarthNet.cs[0] usedPower 3989206.7898707
scalar OsgEarthNet.cs[0] chargedPower 3989206.7898707
scalar OsgEarthNet.cs[0] chargedMobileNodes 872
scalar OsgEarthNet.cs[0] reservations 886
scalar OsgEarthNet.cs[1] usedPower 4141932.119477
scalar OsgEarthNet.cs[1] chargedPower 4141932.119477
scalar OsgEarthNet.cs[1] chargedMobileNodes 1033
scalar OsgEarthNet.cs[1] reservations 1047
scalar OsgEarthNet.cs[2] usedPower 8662699.6996302
scalar OsgEarthNet.cs[2] chargedPower 8662699.6996302
scalar OsgEarthNet.cs[2] chargedMobileNodes 795
scalar OsgEarthNet.cs[2] reservations 1891

