version 2
run Szenario_Hotel_Gabelbach-133-20180712-02:35:58-13116
attr configname Szenario_Hotel_Gabelbach
attr datetime 20180712-02:35:58
attr experiment Szenario_Hotel_Gabelbach
attr inifile omnetpp.ini
attr iterationvars "$replM=2, $biWeight=0.35, $replSearchM=1, $numUAVs=65"
attr iterationvarsf replM=2,biWeight=0.35,replSearchM=1,numUAVs=65-
attr measurement "$replM=2, $biWeight=0.35, $replSearchM=1, $numUAVs=65"
attr network OsgEarthNet
attr processid 13116
attr repetition 1
attr replication #1
attr resultdir results
attr runnumber 133
attr seedset 133
itervar biWeight 0.35
itervar numUAVs 65
itervar replM 2
itervar replSearchM 1
param *.osgEarthScene.scene "\"Szenario_Hotel_Gabelbach.earth\""
param *.playgroundLatitude 50.6830269
param *.playgroundLongitude 10.8538055
param *.playgroundWidth 3500m
param *.playgroundHeight 3500m
param *.cs[0].posX 3537m
param *.cs[0].posY 965m
param *.cs[0].posZ 538m
param *.cs[1].posX 312m
param *.cs[1].posY 1262m
param *.cs[1].posZ 539m
param *.cs[2].posX 2185m
param *.cs[2].posY 3026m
param *.cs[2].posZ 777m
param *.cs[3].posX 10m
param *.cs[3].posY 2200m
param *.cs[3].posZ 560m
param *.cs[4].posX 750m
param *.cs[4].posY 200m
param *.cs[4].posZ 540m
param *.cs[5].posX 2450m
param *.cs[5].posY 180m
param *.cs[5].posZ 524m
param *.cs[6].posX 3140m
param *.cs[6].posY 1790m
param *.cs[6].posZ 606m
param *.numCSs 3
param *.uav[*].replacementMethod 2
param *.uav[*].weightedSumWeight 0.35
param *.missionControl.replacementSearchMethod 1
param *.numUAVs 65
param *.numCSs 3
param *.numUAVs 100
param *.*.timeStep 10s
param *.uav[*].commandPreviewCommandCount 20
param *.missionControl.missionFiles "\"missions\\\\Szenario_WB_Hotel_Gabelbach_Mission_Hotel.waypoints,missions\\\\Szenario_WB_Hotel_Gabelbach_Mission_Kickelhahn.waypoints,missions\\\\Szenario_WB_Hotel_Gabelbach_Mission_Ilmenau_Sportplatz.waypoints,missions\\\\Szenario_WB_Hotel_Gabelbach_Mission_Manebach_Mitte.waypoints,missions\\\\Szenario_WB_Hotel_Gabelbach_Mission_Manebach_Sued.waypoints,missions\\\\Szenario_WB_Hotel_Gabelbach_Hover_HoheSchlaufe.waypoints,missions\\\\Szenario_WB_Hotel_Gabelbach_Hover_Kickelhahn.waypoints,missions\\\\Szenario_WB_Hotel_Gabelbach_Hover_Gabelbachskopf.waypoints,missions\\\\Szenario_WB_Hotel_Gabelbach_Hover_Dachskopf.waypoints\""
param *.uav[0].startX 3537m
param *.uav[0].startY 965m
param *.uav[0].startZ 539m
param *.uav[1].startX 312m
param *.uav[1].startY 1262m
param *.uav[1].startZ 540m
param *.uav[2].startX 2185m
param *.uav[2].startY 3026m
param *.uav[2].startZ 778m
param *.uav[3].startX 3537m
param *.uav[3].startY 965m
param *.uav[3].startZ 539m
param *.uav[4].startX 312m
param *.uav[4].startY 1262m
param *.uav[4].startZ 540m
param *.uav[5].startX 2185m
param *.uav[5].startY 3026m
param *.uav[5].startZ 778m
param *.uav[6].startX 3537m
param *.uav[6].startY 965m
param *.uav[6].startZ 539m
param *.uav[7].startX 312m
param *.uav[7].startY 1262m
param *.uav[7].startZ 540m
param *.uav[8].startX 2185m
param *.uav[8].startY 3026m
param *.uav[8].startZ 778m
param *.uav[9].startX 3537m
param *.uav[9].startY 965m
param *.uav[9].startZ 539m
param *.uav[10].startX 3537m
param *.uav[10].startY 965m
param *.uav[10].startZ 539m
param *.uav[11].startX 312m
param *.uav[11].startY 1262m
param *.uav[11].startZ 540m
param *.uav[12].startX 2185m
param *.uav[12].startY 3026m
param *.uav[12].startZ 778m
param *.uav[13].startX 3537m
param *.uav[13].startY 965m
param *.uav[13].startZ 539m
param *.uav[14].startX 312m
param *.uav[14].startY 1262m
param *.uav[14].startZ 540m
param *.uav[15].startX 2185m
param *.uav[15].startY 3026m
param *.uav[15].startZ 778m
param *.uav[16].startX 3537m
param *.uav[16].startY 965m
param *.uav[16].startZ 539m
param *.uav[17].startX 312m
param *.uav[17].startY 1262m
param *.uav[17].startZ 540m
param *.uav[18].startX 2185m
param *.uav[18].startY 3026m
param *.uav[18].startZ 778m
param *.uav[19].startX 3537m
param *.uav[19].startY 965m
param *.uav[19].startZ 539m
param *.uav[20].startX 3537m
param *.uav[20].startY 965m
param *.uav[20].startZ 539m
param *.uav[21].startX 312m
param *.uav[21].startY 1262m
param *.uav[21].startZ 540m
param *.uav[22].startX 2185m
param *.uav[22].startY 3026m
param *.uav[22].startZ 778m
param *.uav[23].startX 3537m
param *.uav[23].startY 965m
param *.uav[23].startZ 539m
param *.uav[24].startX 312m
param *.uav[24].startY 1262m
param *.uav[24].startZ 540m
param *.uav[25].startX 2185m
param *.uav[25].startY 3026m
param *.uav[25].startZ 778m
param *.uav[26].startX 3537m
param *.uav[26].startY 965m
param *.uav[26].startZ 539m
param *.uav[27].startX 312m
param *.uav[27].startY 1262m
param *.uav[27].startZ 540m
param *.uav[28].startX 2185m
param *.uav[28].startY 3026m
param *.uav[28].startZ 778m
param *.uav[29].startX 3537m
param *.uav[29].startY 965m
param *.uav[29].startZ 539m
param *.uav[30].startX 3537m
param *.uav[30].startY 965m
param *.uav[30].startZ 539m
param *.uav[31].startX 312m
param *.uav[31].startY 1262m
param *.uav[31].startZ 540m
param *.uav[32].startX 2185m
param *.uav[32].startY 3026m
param *.uav[32].startZ 778m
param *.uav[33].startX 3537m
param *.uav[33].startY 965m
param *.uav[33].startZ 539m
param *.uav[34].startX 312m
param *.uav[34].startY 1262m
param *.uav[34].startZ 540m
param *.uav[35].startX 2185m
param *.uav[35].startY 3026m
param *.uav[35].startZ 778m
param *.uav[36].startX 3537m
param *.uav[36].startY 965m
param *.uav[36].startZ 539m
param *.uav[37].startX 312m
param *.uav[37].startY 1262m
param *.uav[37].startZ 540m
param *.uav[38].startX 2185m
param *.uav[38].startY 3026m
param *.uav[38].startZ 778m
param *.uav[39].startX 3537m
param *.uav[39].startY 965m
param *.uav[39].startZ 539m
param *.uav[40].startX 3537m
param *.uav[40].startY 965m
param *.uav[40].startZ 539m
param *.uav[41].startX 312m
param *.uav[41].startY 1262m
param *.uav[41].startZ 540m
param *.uav[42].startX 2185m
param *.uav[42].startY 3026m
param *.uav[42].startZ 778m
param *.uav[43].startX 3537m
param *.uav[43].startY 965m
param *.uav[43].startZ 539m
param *.uav[44].startX 312m
param *.uav[44].startY 1262m
param *.uav[44].startZ 540m
param *.uav[45].startX 2185m
param *.uav[45].startY 3026m
param *.uav[45].startZ 778m
param *.uav[46].startX 3537m
param *.uav[46].startY 965m
param *.uav[46].startZ 539m
param *.uav[47].startX 312m
param *.uav[47].startY 1262m
param *.uav[47].startZ 540m
param *.uav[48].startX 2185m
param *.uav[48].startY 3026m
param *.uav[48].startZ 778m
param *.uav[49].startX 3537m
param *.uav[49].startY 965m
param *.uav[49].startZ 539m
param *.uav[50].startX 3537m
param *.uav[50].startY 965m
param *.uav[50].startZ 539m
param *.uav[51].startX 312m
param *.uav[51].startY 1262m
param *.uav[51].startZ 540m
param *.uav[52].startX 2185m
param *.uav[52].startY 3026m
param *.uav[52].startZ 778m
param *.uav[53].startX 3537m
param *.uav[53].startY 965m
param *.uav[53].startZ 539m
param *.uav[54].startX 312m
param *.uav[54].startY 1262m
param *.uav[54].startZ 540m
param *.uav[55].startX 2185m
param *.uav[55].startY 3026m
param *.uav[55].startZ 778m
param *.uav[56].startX 3537m
param *.uav[56].startY 965m
param *.uav[56].startZ 539m
param *.uav[57].startX 312m
param *.uav[57].startY 1262m
param *.uav[57].startZ 540m
param *.uav[58].startX 2185m
param *.uav[58].startY 3026m
param *.uav[58].startZ 778m
param *.uav[59].startX 3537m
param *.uav[59].startY 965m
param *.uav[59].startZ 539m
param *.uav[60].startX 3537m
param *.uav[60].startY 965m
param *.uav[60].startZ 539m
param *.uav[61].startX 312m
param *.uav[61].startY 1262m
param *.uav[61].startZ 540m
param *.uav[62].startX 2185m
param *.uav[62].startY 3026m
param *.uav[62].startZ 778m
param *.uav[63].startX 3537m
param *.uav[63].startY 965m
param *.uav[63].startZ 539m
param *.uav[64].startX 312m
param *.uav[64].startY 1262m
param *.uav[64].startZ 540m
param *.uav[65].startX 2185m
param *.uav[65].startY 3026m
param *.uav[65].startZ 778m
param *.uav[66].startX 3537m
param *.uav[66].startY 965m
param *.uav[66].startZ 539m
param *.uav[67].startX 312m
param *.uav[67].startY 1262m
param *.uav[67].startZ 540m
param *.uav[68].startX 2185m
param *.uav[68].startY 3026m
param *.uav[68].startZ 778m
param *.uav[69].startX 3537m
param *.uav[69].startY 965m
param *.uav[69].startZ 539m
param *.uav[70].startX 3537m
param *.uav[70].startY 965m
param *.uav[70].startZ 539m
param *.uav[71].startX 312m
param *.uav[71].startY 1262m
param *.uav[71].startZ 540m
param *.uav[72].startX 2185m
param *.uav[72].startY 3026m
param *.uav[72].startZ 778m
param *.uav[73].startX 3537m
param *.uav[73].startY 965m
param *.uav[73].startZ 539m
param *.uav[74].startX 312m
param *.uav[74].startY 1262m
param *.uav[74].startZ 540m
param *.uav[75].startX 2185m
param *.uav[75].startY 3026m
param *.uav[75].startZ 778m
param *.uav[76].startX 3537m
param *.uav[76].startY 965m
param *.uav[76].startZ 539m
param *.uav[77].startX 312m
param *.uav[77].startY 1262m
param *.uav[77].startZ 540m
param *.uav[78].startX 2185m
param *.uav[78].startY 3026m
param *.uav[78].startZ 778m
param *.uav[79].startX 3537m
param *.uav[79].startY 965m
param *.uav[79].startZ 539m
param *.uav[80].startX 3537m
param *.uav[80].startY 965m
param *.uav[80].startZ 539m
param *.uav[81].startX 312m
param *.uav[81].startY 1262m
param *.uav[81].startZ 540m
param *.uav[82].startX 2185m
param *.uav[82].startY 3026m
param *.uav[82].startZ 778m
param *.uav[83].startX 3537m
param *.uav[83].startY 965m
param *.uav[83].startZ 539m
param *.uav[84].startX 312m
param *.uav[84].startY 1262m
param *.uav[84].startZ 540m
param *.uav[85].startX 2185m
param *.uav[85].startY 3026m
param *.uav[85].startZ 778m
param *.uav[86].startX 3537m
param *.uav[86].startY 965m
param *.uav[86].startZ 539m
param *.uav[87].startX 312m
param *.uav[87].startY 1262m
param *.uav[87].startZ 540m
param *.uav[88].startX 2185m
param *.uav[88].startY 3026m
param *.uav[88].startZ 778m
param *.uav[89].startX 3537m
param *.uav[89].startY 965m
param *.uav[89].startZ 539m
param *.uav[90].startX 3537m
param *.uav[90].startY 965m
param *.uav[90].startZ 539m
param *.uav[91].startX 312m
param *.uav[91].startY 1262m
param *.uav[91].startZ 540m
param *.uav[92].startX 2185m
param *.uav[92].startY 3026m
param *.uav[92].startZ 778m
param *.uav[93].startX 3537m
param *.uav[93].startY 965m
param *.uav[93].startZ 539m
param *.uav[94].startX 312m
param *.uav[94].startY 1262m
param *.uav[94].startZ 540m
param *.uav[95].startX 2185m
param *.uav[95].startY 3026m
param *.uav[95].startZ 778m
param *.uav[96].startX 3537m
param *.uav[96].startY 965m
param *.uav[96].startZ 539m
param *.uav[97].startX 312m
param *.uav[97].startY 1262m
param *.uav[97].startZ 540m
param *.uav[98].startX 2185m
param *.uav[98].startY 3026m
param *.uav[98].startZ 778m
param *.uav[99].startX 3537m
param *.uav[99].startY 965m
param *.uav[99].startZ 539m
param *.osgEarthScene.scene "\"boston.earth\""
param *.playgroundLatitude 42.3558
param *.playgroundLongitude -71.0677
param *.playgroundWidth 400m
param *.playgroundHeight 200m
param *.channelController.connectionColor "\"#0000FF40\""
param *.channelController.showConnections false
param *.uav[*].modelURL "\"quadrocopter.small.obj.15.scale.0,0,90.rot\""
param *.uav[*].labelColor "\"#FF7C00CC\""
param *.uav[*].label2Color "\"#FF7C00EE\""
param *.uav[*].batteryCapacity 5200mAh
param *.uav[*].batteryRemaining uav[index].batteryCapacity
param *.uav[*].predictionQuantile 0.95
param *.uav[*].replacementMethod 2
param *.uav[*].weightedSumWeight 0.5
param *.cs[*].modelURL "\"chargingstation_v1.osgt.2.scale.0,0,0.rot.0,0,-15e-1.trans\""
param *.cs[*].spotsWaiting 999
param *.cs[*].spotsCharging 999
param *.cs[*].chargeEffectivenessPercentage 100
param *.cs[*].nonLinearPhaseStartPercentage 85
param *.cs[*].chargeCurrent 6.0A
param *.cs[*].prioritizeFastCharge true
param *.missionControl.replacementSearchMethod 0
param *.*.timeStep 9s

scalar OsgEarthNet.uav[0] utilizationSecMission 36229.852635842
scalar OsgEarthNet.uav[0] utilizationSecMaintenance 14972.241479277
scalar OsgEarthNet.uav[0] utilizationSecCharge 185696.95562922
scalar OsgEarthNet.uav[0] utilizationSecIdle 22300.949255665
scalar OsgEarthNet.uav[0] utilizationEnergyMission 176575.61363983
scalar OsgEarthNet.uav[0] utilizationEnergyMaintenance 69236.630001068
scalar OsgEarthNet.uav[0] utilizationEnergyCharge 243083.58325195
scalar OsgEarthNet.uav[0] utilizationEnergyOverdrawMission 0
scalar OsgEarthNet.uav[0] utilizationEnergyOverdrawMaintenance 0
scalar OsgEarthNet.uav[0] utilizationCountMissions 53
scalar OsgEarthNet.uav[0] utilizationCountManeuversMission 1110
scalar OsgEarthNet.uav[0] utilizationCountManeuversMaintenance 106
scalar OsgEarthNet.uav[0] utilizationCountChargeState 53
scalar OsgEarthNet.uav[0] utilizationCountOverdrawnAfterMission 0
scalar OsgEarthNet.uav[0] utilizationCountIdleState 46
scalar OsgEarthNet.uav[0] utilizationFail 0
scalar OsgEarthNet.uav[0] simulationTime 259200
scalar OsgEarthNet.uav[1] utilizationSecMission 35759.418079289
scalar OsgEarthNet.uav[1] utilizationSecMaintenance 15245.13883202
scalar OsgEarthNet.uav[1] utilizationSecCharge 188130
scalar OsgEarthNet.uav[1] utilizationSecIdle 20065.442088691
scalar OsgEarthNet.uav[1] utilizationEnergyMission 173006.18196106
scalar OsgEarthNet.uav[1] utilizationEnergyMaintenance 71384.455714983
scalar OsgEarthNet.uav[1] utilizationEnergyCharge 244787.41992188
scalar OsgEarthNet.uav[1] utilizationEnergyOverdrawMission 0
scalar OsgEarthNet.uav[1] utilizationEnergyOverdrawMaintenance 0
scalar OsgEarthNet.uav[1] utilizationCountMissions 53
scalar OsgEarthNet.uav[1] utilizationCountManeuversMission 1142
scalar OsgEarthNet.uav[1] utilizationCountManeuversMaintenance 107
scalar OsgEarthNet.uav[1] utilizationCountChargeState 53
scalar OsgEarthNet.uav[1] utilizationCountOverdrawnAfterMission 0
scalar OsgEarthNet.uav[1] utilizationCountIdleState 49
scalar OsgEarthNet.uav[1] utilizationFail 0
scalar OsgEarthNet.uav[1] simulationTime 259200
scalar OsgEarthNet.uav[2] utilizationSecMission 36898.832311307
scalar OsgEarthNet.uav[2] utilizationSecMaintenance 14367.447877545
scalar OsgEarthNet.uav[2] utilizationSecCharge 185601.71681115
scalar OsgEarthNet.uav[2] utilizationSecIdle 22332.002
scalar OsgEarthNet.uav[2] utilizationEnergyMission 177801.40277863
scalar OsgEarthNet.uav[2] utilizationEnergyMaintenance 65589.780727386
scalar OsgEarthNet.uav[2] utilizationEnergyCharge 243328.86474609
scalar OsgEarthNet.uav[2] utilizationEnergyOverdrawMission 0
scalar OsgEarthNet.uav[2] utilizationEnergyOverdrawMaintenance 0
scalar OsgEarthNet.uav[2] utilizationCountMissions 53
scalar OsgEarthNet.uav[2] utilizationCountManeuversMission 1103
scalar OsgEarthNet.uav[2] utilizationCountManeuversMaintenance 106
scalar OsgEarthNet.uav[2] utilizationCountChargeState 53
scalar OsgEarthNet.uav[2] utilizationCountOverdrawnAfterMission 0
scalar OsgEarthNet.uav[2] utilizationCountIdleState 49
scalar OsgEarthNet.uav[2] utilizationFail 0
scalar OsgEarthNet.uav[2] simulationTime 259200
scalar OsgEarthNet.uav[3] utilizationSecMission 36678.608258851
scalar OsgEarthNet.uav[3] utilizationSecMaintenance 14848.878005329
scalar OsgEarthNet.uav[3] utilizationSecCharge 185071.56448016
scalar OsgEarthNet.uav[3] utilizationSecIdle 22600.948255665
scalar OsgEarthNet.uav[3] utilizationEnergyMission 177325.23294067
scalar OsgEarthNet.uav[3] utilizationEnergyMaintenance 68980.411144257
scalar OsgEarthNet.uav[3] utilizationEnergyCharge 241974.24621582
scalar OsgEarthNet.uav[3] utilizationEnergyOverdrawMission 0
scalar OsgEarthNet.uav[3] utilizationEnergyOverdrawMaintenance 0
scalar OsgEarthNet.uav[3] utilizationCountMissions 53
scalar OsgEarthNet.uav[3] utilizationCountManeuversMission 1107
scalar OsgEarthNet.uav[3] utilizationCountManeuversMaintenance 106
scalar OsgEarthNet.uav[3] utilizationCountChargeState 53
scalar OsgEarthNet.uav[3] utilizationCountOverdrawnAfterMission 0
scalar OsgEarthNet.uav[3] utilizationCountIdleState 48
scalar OsgEarthNet.uav[3] utilizationFail 0
scalar OsgEarthNet.uav[3] simulationTime 259200
scalar OsgEarthNet.uav[4] utilizationSecMission 34433.560278912
scalar OsgEarthNet.uav[4] utilizationSecMaintenance 20139.424200258
scalar OsgEarthNet.uav[4] utilizationSecCharge 197858.66091795
scalar OsgEarthNet.uav[4] utilizationSecIdle 6768.3536028792
scalar OsgEarthNet.uav[4] utilizationEnergyMission 167643.33044815
scalar OsgEarthNet.uav[4] utilizationEnergyMaintenance 94785.434497833
scalar OsgEarthNet.uav[4] utilizationEnergyCharge 260114.16455078
scalar OsgEarthNet.uav[4] utilizationEnergyOverdrawMission 0
scalar OsgEarthNet.uav[4] utilizationEnergyOverdrawMaintenance 0
scalar OsgEarthNet.uav[4] utilizationCountMissions 62
scalar OsgEarthNet.uav[4] utilizationCountManeuversMission 1112
scalar OsgEarthNet.uav[4] utilizationCountManeuversMaintenance 124
scalar OsgEarthNet.uav[4] utilizationCountChargeState 62
scalar OsgEarthNet.uav[4] utilizationCountOverdrawnAfterMission 0
scalar OsgEarthNet.uav[4] utilizationCountIdleState 26
scalar OsgEarthNet.uav[4] utilizationFail 0
scalar OsgEarthNet.uav[4] simulationTime 259200
scalar OsgEarthNet.uav[5] utilizationSecMission 35549.422663934
scalar OsgEarthNet.uav[5] utilizationSecMaintenance 18791.607620426
scalar OsgEarthNet.uav[5] utilizationSecCharge 197290
scalar OsgEarthNet.uav[5] utilizationSecIdle 7568.9687156399
scalar OsgEarthNet.uav[5] utilizationEnergyMission 167176.8072603
scalar OsgEarthNet.uav[5] utilizationEnergyMaintenance 88481.443248749
scalar OsgEarthNet.uav[5] utilizationEnergyCharge 254763.42163086
scalar OsgEarthNet.uav[5] utilizationEnergyOverdrawMission 0
scalar OsgEarthNet.uav[5] utilizationEnergyOverdrawMaintenance 0
scalar OsgEarthNet.uav[5] utilizationCountMissions 64
scalar OsgEarthNet.uav[5] utilizationCountManeuversMission 876
scalar OsgEarthNet.uav[5] utilizationCountManeuversMaintenance 129
scalar OsgEarthNet.uav[5] utilizationCountChargeState 64
scalar OsgEarthNet.uav[5] utilizationCountOverdrawnAfterMission 0
scalar OsgEarthNet.uav[5] utilizationCountIdleState 37
scalar OsgEarthNet.uav[5] utilizationFail 0
scalar OsgEarthNet.uav[5] simulationTime 259200
scalar OsgEarthNet.uav[6] utilizationSecMission 34641.453252795
scalar OsgEarthNet.uav[6] utilizationSecMaintenance 15974.235624881
scalar OsgEarthNet.uav[6] utilizationSecCharge 185870.14634942
scalar OsgEarthNet.uav[6] utilizationSecIdle 22714.163772908
scalar OsgEarthNet.uav[6] utilizationEnergyMission 169667.72000885
scalar OsgEarthNet.uav[6] utilizationEnergyMaintenance 73181.601318359
scalar OsgEarthNet.uav[6] utilizationEnergyCharge 240659.71081543
scalar OsgEarthNet.uav[6] utilizationEnergyOverdrawMission 0
scalar OsgEarthNet.uav[6] utilizationEnergyOverdrawMaintenance 0
scalar OsgEarthNet.uav[6] utilizationCountMissions 54
scalar OsgEarthNet.uav[6] utilizationCountManeuversMission 1251
scalar OsgEarthNet.uav[6] utilizationCountManeuversMaintenance 108
scalar OsgEarthNet.uav[6] utilizationCountChargeState 54
scalar OsgEarthNet.uav[6] utilizationCountOverdrawnAfterMission 0
scalar OsgEarthNet.uav[6] utilizationCountIdleState 51
scalar OsgEarthNet.uav[6] utilizationFail 0
scalar OsgEarthNet.uav[6] simulationTime 259200
scalar OsgEarthNet.uav[7] utilizationSecMission 33486.28144667
scalar OsgEarthNet.uav[7] utilizationSecMaintenance 20713.876904241
scalar OsgEarthNet.uav[7] utilizationSecCharge 200910
scalar OsgEarthNet.uav[7] utilizationSecIdle 4089.8406490893
scalar OsgEarthNet.uav[7] utilizationEnergyMission 160584.50060272
scalar OsgEarthNet.uav[7] utilizationEnergyMaintenance 98799.960575104
scalar OsgEarthNet.uav[7] utilizationEnergyCharge 259287.24389648
scalar OsgEarthNet.uav[7] utilizationEnergyOverdrawMission 0
scalar OsgEarthNet.uav[7] utilizationEnergyOverdrawMaintenance 0
scalar OsgEarthNet.uav[7] utilizationCountMissions 67
scalar OsgEarthNet.uav[7] utilizationCountManeuversMission 950
scalar OsgEarthNet.uav[7] utilizationCountManeuversMaintenance 134
scalar OsgEarthNet.uav[7] utilizationCountChargeState 67
scalar OsgEarthNet.uav[7] utilizationCountOverdrawnAfterMission 0
scalar OsgEarthNet.uav[7] utilizationCountIdleState 27
scalar OsgEarthNet.uav[7] utilizationFail 0
scalar OsgEarthNet.uav[7] simulationTime 259200
scalar OsgEarthNet.uav[8] utilizationSecMission 36318.528513433
scalar OsgEarthNet.uav[8] utilizationSecMaintenance 14858.06664713
scalar OsgEarthNet.uav[8] utilizationSecCharge 185943.77275877
scalar OsgEarthNet.uav[8] utilizationSecIdle 22079.631080665
scalar OsgEarthNet.uav[8] utilizationEnergyMission 177990.13475037
scalar OsgEarthNet.uav[8] utilizationEnergyMaintenance 68272.753612518
scalar OsgEarthNet.uav[8] utilizationEnergyCharge 242524.20068359
scalar OsgEarthNet.uav[8] utilizationEnergyOverdrawMission 0
scalar OsgEarthNet.uav[8] utilizationEnergyOverdrawMaintenance 0
scalar OsgEarthNet.uav[8] utilizationCountMissions 53
scalar OsgEarthNet.uav[8] utilizationCountManeuversMission 1089
scalar OsgEarthNet.uav[8] utilizationCountManeuversMaintenance 106
scalar OsgEarthNet.uav[8] utilizationCountChargeState 53
scalar OsgEarthNet.uav[8] utilizationCountOverdrawnAfterMission 0
scalar OsgEarthNet.uav[8] utilizationCountIdleState 49
scalar OsgEarthNet.uav[8] utilizationFail 0
scalar OsgEarthNet.uav[8] simulationTime 259200
scalar OsgEarthNet.uav[9] utilizationSecMission 34841.721596971
scalar OsgEarthNet.uav[9] utilizationSecMaintenance 18817.706991273
scalar OsgEarthNet.uav[9] utilizationSecCharge 196340
scalar OsgEarthNet.uav[9] utilizationSecIdle 9200.570411756
scalar OsgEarthNet.uav[9] utilizationEnergyMission 168167.04697536
scalar OsgEarthNet.uav[9] utilizationEnergyMaintenance 89424.964912415
scalar OsgEarthNet.uav[9] utilizationEnergyCharge 255066.3425293
scalar OsgEarthNet.uav[9] utilizationEnergyOverdrawMission 0
scalar OsgEarthNet.uav[9] utilizationEnergyOverdrawMaintenance 0
scalar OsgEarthNet.uav[9] utilizationCountMissions 62
scalar OsgEarthNet.uav[9] utilizationCountManeuversMission 928
scalar OsgEarthNet.uav[9] utilizationCountManeuversMaintenance 125
scalar OsgEarthNet.uav[9] utilizationCountChargeState 62
scalar OsgEarthNet.uav[9] utilizationCountOverdrawnAfterMission 0
scalar OsgEarthNet.uav[9] utilizationCountIdleState 34
scalar OsgEarthNet.uav[9] utilizationFail 0
scalar OsgEarthNet.uav[9] simulationTime 259200
scalar OsgEarthNet.uav[10] utilizationSecMission 35264.120470596
scalar OsgEarthNet.uav[10] utilizationSecMaintenance 22854.055807225
scalar OsgEarthNet.uav[10] utilizationSecCharge 195620
scalar OsgEarthNet.uav[10] utilizationSecIdle 5461.8227221792
scalar OsgEarthNet.uav[10] utilizationEnergyMission 173296.05799103
scalar OsgEarthNet.uav[10] utilizationEnergyMaintenance 108173.50641116
scalar OsgEarthNet.uav[10] utilizationEnergyCharge 280255.64160156
scalar OsgEarthNet.uav[10] utilizationEnergyOverdrawMission 0
scalar OsgEarthNet.uav[10] utilizationEnergyOverdrawMaintenance 0
scalar OsgEarthNet.uav[10] utilizationCountMissions 63
scalar OsgEarthNet.uav[10] utilizationCountManeuversMission 1169
scalar OsgEarthNet.uav[10] utilizationCountManeuversMaintenance 127
scalar OsgEarthNet.uav[10] utilizationCountChargeState 63
scalar OsgEarthNet.uav[10] utilizationCountOverdrawnAfterMission 0
scalar OsgEarthNet.uav[10] utilizationCountIdleState 9
scalar OsgEarthNet.uav[10] utilizationFail 0
scalar OsgEarthNet.uav[10] simulationTime 259200
scalar OsgEarthNet.uav[11] utilizationSecMission 36091.541664097
scalar OsgEarthNet.uav[11] utilizationSecMaintenance 15699.049081396
scalar OsgEarthNet.uav[11] utilizationSecCharge 187852.09217268
scalar OsgEarthNet.uav[11] utilizationSecIdle 19557.316081831
scalar OsgEarthNet.uav[11] utilizationEnergyMission 174381.39209747
scalar OsgEarthNet.uav[11] utilizationEnergyMaintenance 72308.019550324
scalar OsgEarthNet.uav[11] utilizationEnergyCharge 246385.79174805
scalar OsgEarthNet.uav[11] utilizationEnergyOverdrawMission 0
scalar OsgEarthNet.uav[11] utilizationEnergyOverdrawMaintenance 0
scalar OsgEarthNet.uav[11] utilizationCountMissions 54
scalar OsgEarthNet.uav[11] utilizationCountManeuversMission 1108
scalar OsgEarthNet.uav[11] utilizationCountManeuversMaintenance 108
scalar OsgEarthNet.uav[11] utilizationCountChargeState 54
scalar OsgEarthNet.uav[11] utilizationCountOverdrawnAfterMission 0
scalar OsgEarthNet.uav[11] utilizationCountIdleState 43
scalar OsgEarthNet.uav[11] utilizationFail 0
scalar OsgEarthNet.uav[11] simulationTime 259200
scalar OsgEarthNet.uav[12] utilizationSecMission 35280.92119028
scalar OsgEarthNet.uav[12] utilizationSecMaintenance 17058.797854939
scalar OsgEarthNet.uav[12] utilizationSecCharge 188648.27995478
scalar OsgEarthNet.uav[12] utilizationSecIdle 18212
scalar OsgEarthNet.uav[12] utilizationEnergyMission 169388.35341263
scalar OsgEarthNet.uav[12] utilizationEnergyMaintenance 79462.767547607
scalar OsgEarthNet.uav[12] utilizationEnergyCharge 249350.82299805
scalar OsgEarthNet.uav[12] utilizationEnergyOverdrawMission 0
scalar OsgEarthNet.uav[12] utilizationEnergyOverdrawMaintenance 0
scalar OsgEarthNet.uav[12] utilizationCountMissions 55
scalar OsgEarthNet.uav[12] utilizationCountManeuversMission 1150
scalar OsgEarthNet.uav[12] utilizationCountManeuversMaintenance 110
scalar OsgEarthNet.uav[12] utilizationCountChargeState 55
scalar OsgEarthNet.uav[12] utilizationCountOverdrawnAfterMission 0
scalar OsgEarthNet.uav[12] utilizationCountIdleState 43
scalar OsgEarthNet.uav[12] utilizationFail 0
scalar OsgEarthNet.uav[12] simulationTime 259200
scalar OsgEarthNet.uav[13] utilizationSecMission 35583.949322203
scalar OsgEarthNet.uav[13] utilizationSecMaintenance 23451.417572712
scalar OsgEarthNet.uav[13] utilizationSecCharge 198472.63210508
scalar OsgEarthNet.uav[13] utilizationSecIdle 1692
scalar OsgEarthNet.uav[13] utilizationEnergyMission 174113.37598038
scalar OsgEarthNet.uav[13] utilizationEnergyMaintenance 111492.18014526
scalar OsgEarthNet.uav[13] utilizationEnergyCharge 285952.96533203
scalar OsgEarthNet.uav[13] utilizationEnergyOverdrawMission 0
scalar OsgEarthNet.uav[13] utilizationEnergyOverdrawMaintenance 0
scalar OsgEarthNet.uav[13] utilizationCountMissions 64
scalar OsgEarthNet.uav[13] utilizationCountManeuversMission 1197
scalar OsgEarthNet.uav[13] utilizationCountManeuversMaintenance 127
scalar OsgEarthNet.uav[13] utilizationCountChargeState 64
scalar OsgEarthNet.uav[13] utilizationCountOverdrawnAfterMission 0
scalar OsgEarthNet.uav[13] utilizationCountIdleState 7
scalar OsgEarthNet.uav[13] utilizationFail 0
scalar OsgEarthNet.uav[13] simulationTime 259200
scalar OsgEarthNet.uav[14] utilizationSecMission 31465.047198066
scalar OsgEarthNet.uav[14] utilizationSecMaintenance 21523.281636069
scalar OsgEarthNet.uav[14] utilizationSecCharge 199569.66516587
scalar OsgEarthNet.uav[14] utilizationSecIdle 6642.005
scalar OsgEarthNet.uav[14] utilizationEnergyMission 153125.23081589
scalar OsgEarthNet.uav[14] utilizationEnergyMaintenance 101407.6569252
scalar OsgEarthNet.uav[14] utilizationEnergyCharge 255513.92114258
scalar OsgEarthNet.uav[14] utilizationEnergyOverdrawMission 0
scalar OsgEarthNet.uav[14] utilizationEnergyOverdrawMaintenance 0
scalar OsgEarthNet.uav[14] utilizationCountMissions 67
scalar OsgEarthNet.uav[14] utilizationCountManeuversMission 1018
scalar OsgEarthNet.uav[14] utilizationCountManeuversMaintenance 134
scalar OsgEarthNet.uav[14] utilizationCountChargeState 67
scalar OsgEarthNet.uav[14] utilizationCountOverdrawnAfterMission 0
scalar OsgEarthNet.uav[14] utilizationCountIdleState 24
scalar OsgEarthNet.uav[14] utilizationFail 0
scalar OsgEarthNet.uav[14] simulationTime 259200
scalar OsgEarthNet.uav[15] utilizationSecMission 35475.962736594
scalar OsgEarthNet.uav[15] utilizationSecMaintenance 22718.697024291
scalar OsgEarthNet.uav[15] utilizationSecCharge 197473.33923912
scalar OsgEarthNet.uav[15] utilizationSecIdle 3532
scalar OsgEarthNet.uav[15] utilizationEnergyMission 173052.53979963
scalar OsgEarthNet.uav[15] utilizationEnergyMaintenance 108397.82027054
scalar OsgEarthNet.uav[15] utilizationEnergyCharge 280882.46948242
scalar OsgEarthNet.uav[15] utilizationEnergyOverdrawMission 0
scalar OsgEarthNet.uav[15] utilizationEnergyOverdrawMaintenance 0
scalar OsgEarthNet.uav[15] utilizationCountMissions 63
scalar OsgEarthNet.uav[15] utilizationCountManeuversMission 1227
scalar OsgEarthNet.uav[15] utilizationCountManeuversMaintenance 125
scalar OsgEarthNet.uav[15] utilizationCountChargeState 63
scalar OsgEarthNet.uav[15] utilizationCountOverdrawnAfterMission 0
scalar OsgEarthNet.uav[15] utilizationCountIdleState 13
scalar OsgEarthNet.uav[15] utilizationFail 0
scalar OsgEarthNet.uav[15] simulationTime 259200
scalar OsgEarthNet.uav[16] utilizationSecMission 35944.636548097
scalar OsgEarthNet.uav[16] utilizationSecMaintenance 23278.814201655
scalar OsgEarthNet.uav[16] utilizationSecCharge 195045.35168328
scalar OsgEarthNet.uav[16] utilizationSecIdle 4931.1965669676
scalar OsgEarthNet.uav[16] utilizationEnergyMission 175547.41684723
scalar OsgEarthNet.uav[16] utilizationEnergyMaintenance 110450.18338013
scalar OsgEarthNet.uav[16] utilizationEnergyCharge 280417.3793335
scalar OsgEarthNet.uav[16] utilizationEnergyOverdrawMission 0
scalar OsgEarthNet.uav[16] utilizationEnergyOverdrawMaintenance 0
scalar OsgEarthNet.uav[16] utilizationCountMissions 64
scalar OsgEarthNet.uav[16] utilizationCountManeuversMission 1194
scalar OsgEarthNet.uav[16] utilizationCountManeuversMaintenance 128
scalar OsgEarthNet.uav[16] utilizationCountChargeState 64
scalar OsgEarthNet.uav[16] utilizationCountOverdrawnAfterMission 0
scalar OsgEarthNet.uav[16] utilizationCountIdleState 11
scalar OsgEarthNet.uav[16] utilizationFail 0
scalar OsgEarthNet.uav[16] simulationTime 259200
scalar OsgEarthNet.uav[17] utilizationSecMission 32950.332153774
scalar OsgEarthNet.uav[17] utilizationSecMaintenance 21217.663846226
scalar OsgEarthNet.uav[17] utilizationSecCharge 198950
scalar OsgEarthNet.uav[17] utilizationSecIdle 6082.003
scalar OsgEarthNet.uav[17] utilizationEnergyMission 159383.70023599
scalar OsgEarthNet.uav[17] utilizationEnergyMaintenance 100621.28539276
scalar OsgEarthNet.uav[17] utilizationEnergyCharge 259739.89697266
scalar OsgEarthNet.uav[17] utilizationEnergyOverdrawMission 0
scalar OsgEarthNet.uav[17] utilizationEnergyOverdrawMaintenance 0
scalar OsgEarthNet.uav[17] utilizationCountMissions 65
scalar OsgEarthNet.uav[17] utilizationCountManeuversMission 1092
scalar OsgEarthNet.uav[17] utilizationCountManeuversMaintenance 131
scalar OsgEarthNet.uav[17] utilizationCountChargeState 65
scalar OsgEarthNet.uav[17] utilizationCountOverdrawnAfterMission 0
scalar OsgEarthNet.uav[17] utilizationCountIdleState 26
scalar OsgEarthNet.uav[17] utilizationFail 0
scalar OsgEarthNet.uav[17] simulationTime 259200
scalar OsgEarthNet.uav[18] utilizationSecMission 37271.346873921
scalar OsgEarthNet.uav[18] utilizationSecMaintenance 14276.652126079
scalar OsgEarthNet.uav[18] utilizationSecCharge 188180
scalar OsgEarthNet.uav[18] utilizationSecIdle 19472
scalar OsgEarthNet.uav[18] utilizationEnergyMission 179032.83617335
scalar OsgEarthNet.uav[18] utilizationEnergyMaintenance 67139.66627121
scalar OsgEarthNet.uav[18] utilizationEnergyCharge 246452.92919922
scalar OsgEarthNet.uav[18] utilizationEnergyOverdrawMission 0
scalar OsgEarthNet.uav[18] utilizationEnergyOverdrawMaintenance 0
scalar OsgEarthNet.uav[18] utilizationCountMissions 53
scalar OsgEarthNet.uav[18] utilizationCountManeuversMission 1106
scalar OsgEarthNet.uav[18] utilizationCountManeuversMaintenance 106
scalar OsgEarthNet.uav[18] utilizationCountChargeState 53
scalar OsgEarthNet.uav[18] utilizationCountOverdrawnAfterMission 0
scalar OsgEarthNet.uav[18] utilizationCountIdleState 46
scalar OsgEarthNet.uav[18] utilizationFail 0
scalar OsgEarthNet.uav[18] simulationTime 259200
scalar OsgEarthNet.uav[19] utilizationSecMission 36005.886853258
scalar OsgEarthNet.uav[19] utilizationSecMaintenance 22442.108146742
scalar OsgEarthNet.uav[19] utilizationSecCharge 196900
scalar OsgEarthNet.uav[19] utilizationSecIdle 3852.004
scalar OsgEarthNet.uav[19] utilizationEnergyMission 173756.27435684
scalar OsgEarthNet.uav[19] utilizationEnergyMaintenance 107133.4731618
scalar OsgEarthNet.uav[19] utilizationEnergyCharge 282035.83251953
scalar OsgEarthNet.uav[19] utilizationEnergyOverdrawMission 0
scalar OsgEarthNet.uav[19] utilizationEnergyOverdrawMaintenance 0
scalar OsgEarthNet.uav[19] utilizationCountMissions 63
scalar OsgEarthNet.uav[19] utilizationCountManeuversMission 1145
scalar OsgEarthNet.uav[19] utilizationCountManeuversMaintenance 127
scalar OsgEarthNet.uav[19] utilizationCountChargeState 63
scalar OsgEarthNet.uav[19] utilizationCountOverdrawnAfterMission 0
scalar OsgEarthNet.uav[19] utilizationCountIdleState 13
scalar OsgEarthNet.uav[19] utilizationFail 0
scalar OsgEarthNet.uav[19] simulationTime 259200
scalar OsgEarthNet.uav[20] utilizationSecMission 36165.886853258
scalar OsgEarthNet.uav[20] utilizationSecMaintenance 22178.136735233
scalar OsgEarthNet.uav[20] utilizationSecCharge 195913.96841151
scalar OsgEarthNet.uav[20] utilizationSecIdle 4942.007
scalar OsgEarthNet.uav[20] utilizationEnergyMission 176324.4638176
scalar OsgEarthNet.uav[20] utilizationEnergyMaintenance 104707.41448212
scalar OsgEarthNet.uav[20] utilizationEnergyCharge 280263.86181641
scalar OsgEarthNet.uav[20] utilizationEnergyOverdrawMission 0
scalar OsgEarthNet.uav[20] utilizationEnergyOverdrawMaintenance 0
scalar OsgEarthNet.uav[20] utilizationCountMissions 63
scalar OsgEarthNet.uav[20] utilizationCountManeuversMission 1153
scalar OsgEarthNet.uav[20] utilizationCountManeuversMaintenance 126
scalar OsgEarthNet.uav[20] utilizationCountChargeState 63
scalar OsgEarthNet.uav[20] utilizationCountOverdrawnAfterMission 0
scalar OsgEarthNet.uav[20] utilizationCountIdleState 13
scalar OsgEarthNet.uav[20] utilizationFail 0
scalar OsgEarthNet.uav[20] simulationTime 259200
scalar OsgEarthNet.uav[21] utilizationSecMission 35660.056885274
scalar OsgEarthNet.uav[21] utilizationSecMaintenance 19143.741632118
scalar OsgEarthNet.uav[21] utilizationSecCharge 197164.19897589
scalar OsgEarthNet.uav[21] utilizationSecIdle 7232.0015067221
scalar OsgEarthNet.uav[21] utilizationEnergyMission 169589.17287064
scalar OsgEarthNet.uav[21] utilizationEnergyMaintenance 90765.017456055
scalar OsgEarthNet.uav[21] utilizationEnergyCharge 259632.13549805
scalar OsgEarthNet.uav[21] utilizationEnergyOverdrawMission 0
scalar OsgEarthNet.uav[21] utilizationEnergyOverdrawMaintenance 0
scalar OsgEarthNet.uav[21] utilizationCountMissions 63
scalar OsgEarthNet.uav[21] utilizationCountManeuversMission 960
scalar OsgEarthNet.uav[21] utilizationCountManeuversMaintenance 126
scalar OsgEarthNet.uav[21] utilizationCountChargeState 63
scalar OsgEarthNet.uav[21] utilizationCountOverdrawnAfterMission 0
scalar OsgEarthNet.uav[21] utilizationCountIdleState 27
scalar OsgEarthNet.uav[21] utilizationFail 0
scalar OsgEarthNet.uav[21] simulationTime 259200
scalar OsgEarthNet.uav[22] utilizationSecMission 36012.344866109
scalar OsgEarthNet.uav[22] utilizationSecMaintenance 15532.056251928
scalar OsgEarthNet.uav[22] utilizationSecCharge 188493.59588196
scalar OsgEarthNet.uav[22] utilizationSecIdle 19162.002
scalar OsgEarthNet.uav[22] utilizationEnergyMission 173810.19636917
scalar OsgEarthNet.uav[22] utilizationEnergyMaintenance 71897.842750549
scalar OsgEarthNet.uav[22] utilizationEnergyCharge 247209.35498047
scalar OsgEarthNet.uav[22] utilizationEnergyOverdrawMission 0
scalar OsgEarthNet.uav[22] utilizationEnergyOverdrawMaintenance 0
scalar OsgEarthNet.uav[22] utilizationCountMissions 54
scalar OsgEarthNet.uav[22] utilizationCountManeuversMission 1098
scalar OsgEarthNet.uav[22] utilizationCountManeuversMaintenance 108
scalar OsgEarthNet.uav[22] utilizationCountChargeState 54
scalar OsgEarthNet.uav[22] utilizationCountOverdrawnAfterMission 0
scalar OsgEarthNet.uav[22] utilizationCountIdleState 46
scalar OsgEarthNet.uav[22] utilizationFail 0
scalar OsgEarthNet.uav[22] simulationTime 259200
scalar OsgEarthNet.uav[23] utilizationSecMission 32214.387478363
scalar OsgEarthNet.uav[23] utilizationSecMaintenance 20590.752574315
scalar OsgEarthNet.uav[23] utilizationSecCharge 197802.84994732
scalar OsgEarthNet.uav[23] utilizationSecIdle 8592.009
scalar OsgEarthNet.uav[23] utilizationEnergyMission 153384.61154556
scalar OsgEarthNet.uav[23] utilizationEnergyMaintenance 97029.40422821
scalar OsgEarthNet.uav[23] utilizationEnergyCharge 252188.17602539
scalar OsgEarthNet.uav[23] utilizationEnergyOverdrawMission 0
scalar OsgEarthNet.uav[23] utilizationEnergyOverdrawMaintenance 0
scalar OsgEarthNet.uav[23] utilizationCountMissions 66
scalar OsgEarthNet.uav[23] utilizationCountManeuversMission 909
scalar OsgEarthNet.uav[23] utilizationCountManeuversMaintenance 132
scalar OsgEarthNet.uav[23] utilizationCountChargeState 66
scalar OsgEarthNet.uav[23] utilizationCountOverdrawnAfterMission 0
scalar OsgEarthNet.uav[23] utilizationCountIdleState 27
scalar OsgEarthNet.uav[23] utilizationFail 0
scalar OsgEarthNet.uav[23] simulationTime 259200
scalar OsgEarthNet.uav[24] utilizationSecMission 35901.717134772
scalar OsgEarthNet.uav[24] utilizationSecMaintenance 18463.792023608
scalar OsgEarthNet.uav[24] utilizationSecCharge 197752.48784162
scalar OsgEarthNet.uav[24] utilizationSecIdle 7082.002
scalar OsgEarthNet.uav[24] utilizationEnergyMission 172588.20620346
scalar OsgEarthNet.uav[24] utilizationEnergyMaintenance 87836.667701721
scalar OsgEarthNet.uav[24] utilizationEnergyCharge 259878.20068359
scalar OsgEarthNet.uav[24] utilizationEnergyOverdrawMission 0
scalar OsgEarthNet.uav[24] utilizationEnergyOverdrawMaintenance 0
scalar OsgEarthNet.uav[24] utilizationCountMissions 61
scalar OsgEarthNet.uav[24] utilizationCountManeuversMission 1005
scalar OsgEarthNet.uav[24] utilizationCountManeuversMaintenance 122
scalar OsgEarthNet.uav[24] utilizationCountChargeState 61
scalar OsgEarthNet.uav[24] utilizationCountOverdrawnAfterMission 0
scalar OsgEarthNet.uav[24] utilizationCountIdleState 34
scalar OsgEarthNet.uav[24] utilizationFail 0
scalar OsgEarthNet.uav[24] simulationTime 259200
scalar OsgEarthNet.uav[25] utilizationSecMission 36436.404556034
scalar OsgEarthNet.uav[25] utilizationSecMaintenance 14682.141482033
scalar OsgEarthNet.uav[25] utilizationSecCharge 187940
scalar OsgEarthNet.uav[25] utilizationSecIdle 20141.452961934
scalar OsgEarthNet.uav[25] utilizationEnergyMission 176698.38821683
scalar OsgEarthNet.uav[25] utilizationEnergyMaintenance 67610.7849617
scalar OsgEarthNet.uav[25] utilizationEnergyCharge 244084.97607422
scalar OsgEarthNet.uav[25] utilizationEnergyOverdrawMission 0
scalar OsgEarthNet.uav[25] utilizationEnergyOverdrawMaintenance 0
scalar OsgEarthNet.uav[25] utilizationCountMissions 53
scalar OsgEarthNet.uav[25] utilizationCountManeuversMission 1219
scalar OsgEarthNet.uav[25] utilizationCountManeuversMaintenance 107
scalar OsgEarthNet.uav[25] utilizationCountChargeState 53
scalar OsgEarthNet.uav[25] utilizationCountOverdrawnAfterMission 0
scalar OsgEarthNet.uav[25] utilizationCountIdleState 53
scalar OsgEarthNet.uav[25] utilizationFail 0
scalar OsgEarthNet.uav[25] simulationTime 259200
scalar OsgEarthNet.uav[26] utilizationSecMission 36236.253967087
scalar OsgEarthNet.uav[26] utilizationSecMaintenance 22024.370602454
scalar OsgEarthNet.uav[26] utilizationSecCharge 196899.43017391
scalar OsgEarthNet.uav[26] utilizationSecIdle 4039.9442565444
scalar OsgEarthNet.uav[26] utilizationEnergyMission 174642.04114914
scalar OsgEarthNet.uav[26] utilizationEnergyMaintenance 104765.7958374
scalar OsgEarthNet.uav[26] utilizationEnergyCharge 281319.45996094
scalar OsgEarthNet.uav[26] utilizationEnergyOverdrawMission 0
scalar OsgEarthNet.uav[26] utilizationEnergyOverdrawMaintenance 0
scalar OsgEarthNet.uav[26] utilizationCountMissions 63
scalar OsgEarthNet.uav[26] utilizationCountManeuversMission 1135
scalar OsgEarthNet.uav[26] utilizationCountManeuversMaintenance 126
scalar OsgEarthNet.uav[26] utilizationCountChargeState 63
scalar OsgEarthNet.uav[26] utilizationCountOverdrawnAfterMission 0
scalar OsgEarthNet.uav[26] utilizationCountIdleState 12
scalar OsgEarthNet.uav[26] utilizationFail 0
scalar OsgEarthNet.uav[26] simulationTime 259200
scalar OsgEarthNet.uav[27] utilizationSecMission 34702.828795392
scalar OsgEarthNet.uav[27] utilizationSecMaintenance 17891.727115917
scalar OsgEarthNet.uav[27] utilizationSecCharge 188050
scalar OsgEarthNet.uav[27] utilizationSecIdle 18555.443088691
scalar OsgEarthNet.uav[27] utilizationEnergyMission 168632.10801299
scalar OsgEarthNet.uav[27] utilizationEnergyMaintenance 83820.093036652
scalar OsgEarthNet.uav[27] utilizationEnergyCharge 250833.89794922
scalar OsgEarthNet.uav[27] utilizationEnergyOverdrawMission 0
scalar OsgEarthNet.uav[27] utilizationEnergyOverdrawMaintenance 0
scalar OsgEarthNet.uav[27] utilizationCountMissions 55
scalar OsgEarthNet.uav[27] utilizationCountManeuversMission 1132
scalar OsgEarthNet.uav[27] utilizationCountManeuversMaintenance 111
scalar OsgEarthNet.uav[27] utilizationCountChargeState 55
scalar OsgEarthNet.uav[27] utilizationCountOverdrawnAfterMission 0
scalar OsgEarthNet.uav[27] utilizationCountIdleState 38
scalar OsgEarthNet.uav[27] utilizationFail 0
scalar OsgEarthNet.uav[27] simulationTime 259200
scalar OsgEarthNet.uav[28] utilizationSecMission 36204.393917195
scalar OsgEarthNet.uav[28] utilizationSecMaintenance 14853.448762773
scalar OsgEarthNet.uav[28] utilizationSecCharge 187720.15532003
scalar OsgEarthNet.uav[28] utilizationSecIdle 20422.001
scalar OsgEarthNet.uav[28] utilizationEnergyMission 179146.03690338
scalar OsgEarthNet.uav[28] utilizationEnergyMaintenance 68543.8489151
scalar OsgEarthNet.uav[28] utilizationEnergyCharge 245503.11279297
scalar OsgEarthNet.uav[28] utilizationEnergyOverdrawMission 0
scalar OsgEarthNet.uav[28] utilizationEnergyOverdrawMaintenance 0
scalar OsgEarthNet.uav[28] utilizationCountMissions 53
scalar OsgEarthNet.uav[28] utilizationCountManeuversMission 1203
scalar OsgEarthNet.uav[28] utilizationCountManeuversMaintenance 106
scalar OsgEarthNet.uav[28] utilizationCountChargeState 53
scalar OsgEarthNet.uav[28] utilizationCountOverdrawnAfterMission 0
scalar OsgEarthNet.uav[28] utilizationCountIdleState 50
scalar OsgEarthNet.uav[28] utilizationFail 0
scalar OsgEarthNet.uav[28] simulationTime 259200
scalar OsgEarthNet.uav[29] utilizationSecMission 34542.159275738
scalar OsgEarthNet.uav[29] utilizationSecMaintenance 20630.320273123
scalar OsgEarthNet.uav[29] utilizationSecCharge 197500.900773
scalar OsgEarthNet.uav[29] utilizationSecIdle 6526.6186781405
scalar OsgEarthNet.uav[29] utilizationEnergyMission 169649.63341141
scalar OsgEarthNet.uav[29] utilizationEnergyMaintenance 98974.599464416
scalar OsgEarthNet.uav[29] utilizationEnergyCharge 263939.1015625
scalar OsgEarthNet.uav[29] utilizationEnergyOverdrawMission 0
scalar OsgEarthNet.uav[29] utilizationEnergyOverdrawMaintenance 0
scalar OsgEarthNet.uav[29] utilizationCountMissions 62
scalar OsgEarthNet.uav[29] utilizationCountManeuversMission 1122
scalar OsgEarthNet.uav[29] utilizationCountManeuversMaintenance 124
scalar OsgEarthNet.uav[29] utilizationCountChargeState 62
scalar OsgEarthNet.uav[29] utilizationCountOverdrawnAfterMission 0
scalar OsgEarthNet.uav[29] utilizationCountIdleState 30
scalar OsgEarthNet.uav[29] utilizationFail 0
scalar OsgEarthNet.uav[29] simulationTime 259200
scalar OsgEarthNet.uav[30] utilizationSecMission 35593.128204186
scalar OsgEarthNet.uav[30] utilizationSecMaintenance 24077.552694481
scalar OsgEarthNet.uav[30] utilizationSecCharge 195940
scalar OsgEarthNet.uav[30] utilizationSecIdle 3589.3181013329
scalar OsgEarthNet.uav[30] utilizationEnergyMission 174570.68516541
scalar OsgEarthNet.uav[30] utilizationEnergyMaintenance 114322.21889353
scalar OsgEarthNet.uav[30] utilizationEnergyCharge 283567.13867188
scalar OsgEarthNet.uav[30] utilizationEnergyOverdrawMission 0
scalar OsgEarthNet.uav[30] utilizationEnergyOverdrawMaintenance 0
scalar OsgEarthNet.uav[30] utilizationCountMissions 65
scalar OsgEarthNet.uav[30] utilizationCountManeuversMission 1233
scalar OsgEarthNet.uav[30] utilizationCountManeuversMaintenance 130
scalar OsgEarthNet.uav[30] utilizationCountChargeState 64
scalar OsgEarthNet.uav[30] utilizationCountOverdrawnAfterMission 0
scalar OsgEarthNet.uav[30] utilizationCountIdleState 11
scalar OsgEarthNet.uav[30] utilizationFail 0
scalar OsgEarthNet.uav[30] simulationTime 259200
scalar OsgEarthNet.uav[31] utilizationSecMission 35505.890278808
scalar OsgEarthNet.uav[31] utilizationSecMaintenance 16295.763216304
scalar OsgEarthNet.uav[31] utilizationSecCharge 189002.9044162
scalar OsgEarthNet.uav[31] utilizationSecIdle 18395.441088691
scalar OsgEarthNet.uav[31] utilizationEnergyMission 173737.25076294
scalar OsgEarthNet.uav[31] utilizationEnergyMaintenance 75926.041400909
scalar OsgEarthNet.uav[31] utilizationEnergyCharge 247099.67221069
scalar OsgEarthNet.uav[31] utilizationEnergyOverdrawMission 0
scalar OsgEarthNet.uav[31] utilizationEnergyOverdrawMaintenance 0
scalar OsgEarthNet.uav[31] utilizationCountMissions 55
scalar OsgEarthNet.uav[31] utilizationCountManeuversMission 1318
scalar OsgEarthNet.uav[31] utilizationCountManeuversMaintenance 110
scalar OsgEarthNet.uav[31] utilizationCountChargeState 55
scalar OsgEarthNet.uav[31] utilizationCountOverdrawnAfterMission 0
scalar OsgEarthNet.uav[31] utilizationCountIdleState 46
scalar OsgEarthNet.uav[31] utilizationFail 0
scalar OsgEarthNet.uav[31] simulationTime 259200
scalar OsgEarthNet.uav[32] utilizationSecMission 36673.898648115
scalar OsgEarthNet.uav[32] utilizationSecMaintenance 14339.760085379
scalar OsgEarthNet.uav[32] utilizationSecCharge 186957.44389136
scalar OsgEarthNet.uav[32] utilizationSecIdle 21228.896375144
scalar OsgEarthNet.uav[32] utilizationEnergyMission 176365.88881683
scalar OsgEarthNet.uav[32] utilizationEnergyMaintenance 65586.64768219
scalar OsgEarthNet.uav[32] utilizationEnergyCharge 244805.69921875
scalar OsgEarthNet.uav[32] utilizationEnergyOverdrawMission 0
scalar OsgEarthNet.uav[32] utilizationEnergyOverdrawMaintenance 0
scalar OsgEarthNet.uav[32] utilizationCountMissions 53
scalar OsgEarthNet.uav[32] utilizationCountManeuversMission 1133
scalar OsgEarthNet.uav[32] utilizationCountManeuversMaintenance 106
scalar OsgEarthNet.uav[32] utilizationCountChargeState 53
scalar OsgEarthNet.uav[32] utilizationCountOverdrawnAfterMission 0
scalar OsgEarthNet.uav[32] utilizationCountIdleState 51
scalar OsgEarthNet.uav[32] utilizationFail 0
scalar OsgEarthNet.uav[32] simulationTime 259200
scalar OsgEarthNet.uav[33] utilizationSecMission 36843.185216582
scalar OsgEarthNet.uav[33] utilizationSecMaintenance 15122.467229309
scalar OsgEarthNet.uav[33] utilizationSecCharge 187842.34655411
scalar OsgEarthNet.uav[33] utilizationSecIdle 19392
scalar OsgEarthNet.uav[33] utilizationEnergyMission 177641.31991196
scalar OsgEarthNet.uav[33] utilizationEnergyMaintenance 70350.18056488
scalar OsgEarthNet.uav[33] utilizationEnergyCharge 245663.60009766
scalar OsgEarthNet.uav[33] utilizationEnergyOverdrawMission 0
scalar OsgEarthNet.uav[33] utilizationEnergyOverdrawMaintenance 0
scalar OsgEarthNet.uav[33] utilizationCountMissions 54
scalar OsgEarthNet.uav[33] utilizationCountManeuversMission 1061
scalar OsgEarthNet.uav[33] utilizationCountManeuversMaintenance 107
scalar OsgEarthNet.uav[33] utilizationCountChargeState 54
scalar OsgEarthNet.uav[33] utilizationCountOverdrawnAfterMission 0
scalar OsgEarthNet.uav[33] utilizationCountIdleState 48
scalar OsgEarthNet.uav[33] utilizationFail 0
scalar OsgEarthNet.uav[33] simulationTime 259200
scalar OsgEarthNet.uav[34] utilizationSecMission 35894.312805287
scalar OsgEarthNet.uav[34] utilizationSecMaintenance 19297.092940551
scalar OsgEarthNet.uav[34] utilizationSecCharge 197876.59325416
scalar OsgEarthNet.uav[34] utilizationSecIdle 6132
scalar OsgEarthNet.uav[34] utilizationEnergyMission 172344.3771019
scalar OsgEarthNet.uav[34] utilizationEnergyMaintenance 91435.489124298
scalar OsgEarthNet.uav[34] utilizationEnergyCharge 260783.00805664
scalar OsgEarthNet.uav[34] utilizationEnergyOverdrawMission 0
scalar OsgEarthNet.uav[34] utilizationEnergyOverdrawMaintenance 0
scalar OsgEarthNet.uav[34] utilizationCountMissions 63
scalar OsgEarthNet.uav[34] utilizationCountManeuversMission 1009
scalar OsgEarthNet.uav[34] utilizationCountManeuversMaintenance 125
scalar OsgEarthNet.uav[34] utilizationCountChargeState 63
scalar OsgEarthNet.uav[34] utilizationCountOverdrawnAfterMission 0
scalar OsgEarthNet.uav[34] utilizationCountIdleState 28
scalar OsgEarthNet.uav[34] utilizationFail 0
scalar OsgEarthNet.uav[34] simulationTime 259200
scalar OsgEarthNet.uav[35] utilizationSecMission 36249.240642239
scalar OsgEarthNet.uav[35] utilizationSecMaintenance 15106.450564134
scalar OsgEarthNet.uav[35] utilizationSecCharge 187242.30479363
scalar OsgEarthNet.uav[35] utilizationSecIdle 20602.003
scalar OsgEarthNet.uav[35] utilizationEnergyMission 176169.93466949
scalar OsgEarthNet.uav[35] utilizationEnergyMaintenance 69619.325786591
scalar OsgEarthNet.uav[35] utilizationEnergyCharge 243330.19091797
scalar OsgEarthNet.uav[35] utilizationEnergyOverdrawMission 0
scalar OsgEarthNet.uav[35] utilizationEnergyOverdrawMaintenance 0
scalar OsgEarthNet.uav[35] utilizationCountMissions 53
scalar OsgEarthNet.uav[35] utilizationCountManeuversMission 1234
scalar OsgEarthNet.uav[35] utilizationCountManeuversMaintenance 106
scalar OsgEarthNet.uav[35] utilizationCountChargeState 53
scalar OsgEarthNet.uav[35] utilizationCountOverdrawnAfterMission 0
scalar OsgEarthNet.uav[35] utilizationCountIdleState 52
scalar OsgEarthNet.uav[35] utilizationFail 0
scalar OsgEarthNet.uav[35] simulationTime 259200
scalar OsgEarthNet.uav[36] utilizationSecMission 37403.546974662
scalar OsgEarthNet.uav[36] utilizationSecMaintenance 21794.449025338
scalar OsgEarthNet.uav[36] utilizationSecCharge 196740
scalar OsgEarthNet.uav[36] utilizationSecIdle 3262.003
scalar OsgEarthNet.uav[36] utilizationEnergyMission 179331.93244666
scalar OsgEarthNet.uav[36] utilizationEnergyMaintenance 103379.98637009
scalar OsgEarthNet.uav[36] utilizationEnergyCharge 279545.28173828
scalar OsgEarthNet.uav[36] utilizationEnergyOverdrawMission 0
scalar OsgEarthNet.uav[36] utilizationEnergyOverdrawMaintenance 0
scalar OsgEarthNet.uav[36] utilizationCountMissions 63
scalar OsgEarthNet.uav[36] utilizationCountManeuversMission 1144
scalar OsgEarthNet.uav[36] utilizationCountManeuversMaintenance 127
scalar OsgEarthNet.uav[36] utilizationCountChargeState 63
scalar OsgEarthNet.uav[36] utilizationCountOverdrawnAfterMission 0
scalar OsgEarthNet.uav[36] utilizationCountIdleState 10
scalar OsgEarthNet.uav[36] utilizationFail 0
scalar OsgEarthNet.uav[36] simulationTime 259200
scalar OsgEarthNet.uav[37] utilizationSecMission 34075.668005304
scalar OsgEarthNet.uav[37] utilizationSecMaintenance 20003.386258763
scalar OsgEarthNet.uav[37] utilizationSecCharge 197638.94073593
scalar OsgEarthNet.uav[37] utilizationSecIdle 7482.004
scalar OsgEarthNet.uav[37] utilizationEnergyMission 164289.09777069
scalar OsgEarthNet.uav[37] utilizationEnergyMaintenance 94458.493213654
scalar OsgEarthNet.uav[37] utilizationEnergyCharge 258811.25683594
scalar OsgEarthNet.uav[37] utilizationEnergyOverdrawMission 0
scalar OsgEarthNet.uav[37] utilizationEnergyOverdrawMaintenance 0
scalar OsgEarthNet.uav[37] utilizationCountMissions 62
scalar OsgEarthNet.uav[37] utilizationCountManeuversMission 1095
scalar OsgEarthNet.uav[37] utilizationCountManeuversMaintenance 124
scalar OsgEarthNet.uav[37] utilizationCountChargeState 62
scalar OsgEarthNet.uav[37] utilizationCountOverdrawnAfterMission 0
scalar OsgEarthNet.uav[37] utilizationCountIdleState 32
scalar OsgEarthNet.uav[37] utilizationFail 0
scalar OsgEarthNet.uav[37] simulationTime 259200
scalar OsgEarthNet.uav[38] utilizationSecMission 37989.283734105
scalar OsgEarthNet.uav[38] utilizationSecMaintenance 13707.256225528
scalar OsgEarthNet.uav[38] utilizationSecCharge 186921.45904037
scalar OsgEarthNet.uav[38] utilizationSecIdle 20582
scalar OsgEarthNet.uav[38] utilizationEnergyMission 185350.69044876
scalar OsgEarthNet.uav[38] utilizationEnergyMaintenance 61892.253551483
scalar OsgEarthNet.uav[38] utilizationEnergyCharge 245157.71630859
scalar OsgEarthNet.uav[38] utilizationEnergyOverdrawMission 0
scalar OsgEarthNet.uav[38] utilizationEnergyOverdrawMaintenance 0
scalar OsgEarthNet.uav[38] utilizationCountMissions 53
scalar OsgEarthNet.uav[38] utilizationCountManeuversMission 1176
scalar OsgEarthNet.uav[38] utilizationCountManeuversMaintenance 106
scalar OsgEarthNet.uav[38] utilizationCountChargeState 53
scalar OsgEarthNet.uav[38] utilizationCountOverdrawnAfterMission 0
scalar OsgEarthNet.uav[38] utilizationCountIdleState 50
scalar OsgEarthNet.uav[38] utilizationFail 0
scalar OsgEarthNet.uav[38] simulationTime 259200
scalar OsgEarthNet.uav[39] utilizationSecMission 35602.979240515
scalar OsgEarthNet.uav[39] utilizationSecMaintenance 23490.673011254
scalar OsgEarthNet.uav[39] utilizationSecCharge 195084.33874823
scalar OsgEarthNet.uav[39] utilizationSecIdle 5022.008
scalar OsgEarthNet.uav[39] utilizationEnergyMission 176569.77547836
scalar OsgEarthNet.uav[39] utilizationEnergyMaintenance 111408.40350342
scalar OsgEarthNet.uav[39] utilizationEnergyCharge 281848.29516602
scalar OsgEarthNet.uav[39] utilizationEnergyOverdrawMission 0
scalar OsgEarthNet.uav[39] utilizationEnergyOverdrawMaintenance 0
scalar OsgEarthNet.uav[39] utilizationCountMissions 64
scalar OsgEarthNet.uav[39] utilizationCountManeuversMission 1221
scalar OsgEarthNet.uav[39] utilizationCountManeuversMaintenance 128
scalar OsgEarthNet.uav[39] utilizationCountChargeState 64
scalar OsgEarthNet.uav[39] utilizationCountOverdrawnAfterMission 0
scalar OsgEarthNet.uav[39] utilizationCountIdleState 10
scalar OsgEarthNet.uav[39] utilizationFail 0
scalar OsgEarthNet.uav[39] simulationTime 259200
scalar OsgEarthNet.uav[40] utilizationSecMission 35645.132324248
scalar OsgEarthNet.uav[40] utilizationSecMaintenance 18535.140980155
scalar OsgEarthNet.uav[40] utilizationSecCharge 196877.7206956
scalar OsgEarthNet.uav[40] utilizationSecIdle 8142.005
scalar OsgEarthNet.uav[40] utilizationEnergyMission 171035.26441956
scalar OsgEarthNet.uav[40] utilizationEnergyMaintenance 88404.975502014
scalar OsgEarthNet.uav[40] utilizationEnergyCharge 257293.35766602
scalar OsgEarthNet.uav[40] utilizationEnergyOverdrawMission 0
scalar OsgEarthNet.uav[40] utilizationEnergyOverdrawMaintenance 0
scalar OsgEarthNet.uav[40] utilizationCountMissions 62
scalar OsgEarthNet.uav[40] utilizationCountManeuversMission 964
scalar OsgEarthNet.uav[40] utilizationCountManeuversMaintenance 124
scalar OsgEarthNet.uav[40] utilizationCountChargeState 62
scalar OsgEarthNet.uav[40] utilizationCountOverdrawnAfterMission 0
scalar OsgEarthNet.uav[40] utilizationCountIdleState 30
scalar OsgEarthNet.uav[40] utilizationFail 0
scalar OsgEarthNet.uav[40] simulationTime 259200
scalar OsgEarthNet.uav[41] utilizationSecMission 34561.638411222
scalar OsgEarthNet.uav[41] utilizationSecMaintenance 15742.675658533
scalar OsgEarthNet.uav[41] utilizationSecCharge 186730.24084155
scalar OsgEarthNet.uav[41] utilizationSecIdle 22165.444088691
scalar OsgEarthNet.uav[41] utilizationEnergyMission 169904.20534134
scalar OsgEarthNet.uav[41] utilizationEnergyMaintenance 72871.986141205
scalar OsgEarthNet.uav[41] utilizationEnergyCharge 242987.67773438
scalar OsgEarthNet.uav[41] utilizationEnergyOverdrawMission 0
scalar OsgEarthNet.uav[41] utilizationEnergyOverdrawMaintenance 0
scalar OsgEarthNet.uav[41] utilizationCountMissions 53
scalar OsgEarthNet.uav[41] utilizationCountManeuversMission 1151
scalar OsgEarthNet.uav[41] utilizationCountManeuversMaintenance 106
scalar OsgEarthNet.uav[41] utilizationCountChargeState 53
scalar OsgEarthNet.uav[41] utilizationCountOverdrawnAfterMission 0
scalar OsgEarthNet.uav[41] utilizationCountIdleState 48
scalar OsgEarthNet.uav[41] utilizationFail 0
scalar OsgEarthNet.uav[41] simulationTime 259200
scalar OsgEarthNet.uav[42] utilizationSecMission 37304.401503358
scalar OsgEarthNet.uav[42] utilizationSecMaintenance 14676.422386231
scalar OsgEarthNet.uav[42] utilizationSecCharge 187710
scalar OsgEarthNet.uav[42] utilizationSecIdle 19509.175110411
scalar OsgEarthNet.uav[42] utilizationEnergyMission 182329.56387711
scalar OsgEarthNet.uav[42] utilizationEnergyMaintenance 66970.231259063
scalar OsgEarthNet.uav[42] utilizationEnergyCharge 244990.50585938
scalar OsgEarthNet.uav[42] utilizationEnergyOverdrawMission 0
scalar OsgEarthNet.uav[42] utilizationEnergyOverdrawMaintenance 0
scalar OsgEarthNet.uav[42] utilizationCountMissions 54
scalar OsgEarthNet.uav[42] utilizationCountManeuversMission 1211
scalar OsgEarthNet.uav[42] utilizationCountManeuversMaintenance 108
scalar OsgEarthNet.uav[42] utilizationCountChargeState 53
scalar OsgEarthNet.uav[42] utilizationCountOverdrawnAfterMission 0
scalar OsgEarthNet.uav[42] utilizationCountIdleState 49
scalar OsgEarthNet.uav[42] utilizationFail 0
scalar OsgEarthNet.uav[42] simulationTime 259200
scalar OsgEarthNet.uav[43] utilizationSecMission 34754.259736266
scalar OsgEarthNet.uav[43] utilizationSecMaintenance 19797.492641524
scalar OsgEarthNet.uav[43] utilizationSecCharge 196386.24062221
scalar OsgEarthNet.uav[43] utilizationSecIdle 8262.006
scalar OsgEarthNet.uav[43] utilizationEnergyMission 164224.67928314
scalar OsgEarthNet.uav[43] utilizationEnergyMaintenance 94313.666973114
scalar OsgEarthNet.uav[43] utilizationEnergyCharge 259345.40917969
scalar OsgEarthNet.uav[43] utilizationEnergyOverdrawMission 0
scalar OsgEarthNet.uav[43] utilizationEnergyOverdrawMaintenance 0
scalar OsgEarthNet.uav[43] utilizationCountMissions 65
scalar OsgEarthNet.uav[43] utilizationCountManeuversMission 906
scalar OsgEarthNet.uav[43] utilizationCountManeuversMaintenance 130
scalar OsgEarthNet.uav[43] utilizationCountChargeState 65
scalar OsgEarthNet.uav[43] utilizationCountOverdrawnAfterMission 0
scalar OsgEarthNet.uav[43] utilizationCountIdleState 30
scalar OsgEarthNet.uav[43] utilizationFail 0
scalar OsgEarthNet.uav[43] simulationTime 259200
scalar OsgEarthNet.uav[44] utilizationSecMission 33242.035923082
scalar OsgEarthNet.uav[44] utilizationSecMaintenance 20866.691515173
scalar OsgEarthNet.uav[44] utilizationSecCharge 198846.56586271
scalar OsgEarthNet.uav[44] utilizationSecIdle 6244.7056990363
scalar OsgEarthNet.uav[44] utilizationEnergyMission 158399.16918945
scalar OsgEarthNet.uav[44] utilizationEnergyMaintenance 99742.519435883
scalar OsgEarthNet.uav[44] utilizationEnergyCharge 254857.57836914
scalar OsgEarthNet.uav[44] utilizationEnergyOverdrawMission 0
scalar OsgEarthNet.uav[44] utilizationEnergyOverdrawMaintenance 0
scalar OsgEarthNet.uav[44] utilizationCountMissions 68
scalar OsgEarthNet.uav[44] utilizationCountManeuversMission 942
scalar OsgEarthNet.uav[44] utilizationCountManeuversMaintenance 136
scalar OsgEarthNet.uav[44] utilizationCountChargeState 68
scalar OsgEarthNet.uav[44] utilizationCountOverdrawnAfterMission 0
scalar OsgEarthNet.uav[44] utilizationCountIdleState 24
scalar OsgEarthNet.uav[44] utilizationFail 0
scalar OsgEarthNet.uav[44] simulationTime 259200
scalar OsgEarthNet.uav[45] utilizationSecMission 37303.15008041
scalar OsgEarthNet.uav[45] utilizationSecMaintenance 14524.84791959
scalar OsgEarthNet.uav[45] utilizationSecCharge 187870
scalar OsgEarthNet.uav[45] utilizationSecIdle 19502.001
scalar OsgEarthNet.uav[45] utilizationEnergyMission 183254.03537348
scalar OsgEarthNet.uav[45] utilizationEnergyMaintenance 67911.96118927
scalar OsgEarthNet.uav[45] utilizationEnergyCharge 245232.09619141
scalar OsgEarthNet.uav[45] utilizationEnergyOverdrawMission 0
scalar OsgEarthNet.uav[45] utilizationEnergyOverdrawMaintenance 0
scalar OsgEarthNet.uav[45] utilizationCountMissions 53
scalar OsgEarthNet.uav[45] utilizationCountManeuversMission 1209
scalar OsgEarthNet.uav[45] utilizationCountManeuversMaintenance 107
scalar OsgEarthNet.uav[45] utilizationCountChargeState 53
scalar OsgEarthNet.uav[45] utilizationCountOverdrawnAfterMission 0
scalar OsgEarthNet.uav[45] utilizationCountIdleState 47
scalar OsgEarthNet.uav[45] utilizationFail 0
scalar OsgEarthNet.uav[45] simulationTime 259200
scalar OsgEarthNet.uav[46] utilizationSecMission 36004.745623176
scalar OsgEarthNet.uav[46] utilizationSecMaintenance 23013.365300281
scalar OsgEarthNet.uav[46] utilizationSecCharge 197089.88607654
scalar OsgEarthNet.uav[46] utilizationSecIdle 3092.002
scalar OsgEarthNet.uav[46] utilizationEnergyMission 173590.21895599
scalar OsgEarthNet.uav[46] utilizationEnergyMaintenance 109794.0381279
scalar OsgEarthNet.uav[46] utilizationEnergyCharge 282878.49267578
scalar OsgEarthNet.uav[46] utilizationEnergyOverdrawMission 0
scalar OsgEarthNet.uav[46] utilizationEnergyOverdrawMaintenance 0
scalar OsgEarthNet.uav[46] utilizationCountMissions 64
scalar OsgEarthNet.uav[46] utilizationCountManeuversMission 1180
scalar OsgEarthNet.uav[46] utilizationCountManeuversMaintenance 128
scalar OsgEarthNet.uav[46] utilizationCountChargeState 64
scalar OsgEarthNet.uav[46] utilizationCountOverdrawnAfterMission 0
scalar OsgEarthNet.uav[46] utilizationCountIdleState 9
scalar OsgEarthNet.uav[46] utilizationFail 0
scalar OsgEarthNet.uav[46] simulationTime 259200
scalar OsgEarthNet.uav[47] utilizationSecMission 35160.671320229
scalar OsgEarthNet.uav[47] utilizationSecMaintenance 19664.958407918
scalar OsgEarthNet.uav[47] utilizationSecCharge 199249.75738234
scalar OsgEarthNet.uav[47] utilizationSecIdle 5124.6118895164
scalar OsgEarthNet.uav[47] utilizationEnergyMission 169296.88796997
scalar OsgEarthNet.uav[47] utilizationEnergyMaintenance 93309.543479919
scalar OsgEarthNet.uav[47] utilizationEnergyCharge 261024.59106445
scalar OsgEarthNet.uav[47] utilizationEnergyOverdrawMission 0
scalar OsgEarthNet.uav[47] utilizationEnergyOverdrawMaintenance 0
scalar OsgEarthNet.uav[47] utilizationCountMissions 65
scalar OsgEarthNet.uav[47] utilizationCountManeuversMission 933
scalar OsgEarthNet.uav[47] utilizationCountManeuversMaintenance 130
scalar OsgEarthNet.uav[47] utilizationCountChargeState 65
scalar OsgEarthNet.uav[47] utilizationCountOverdrawnAfterMission 0
scalar OsgEarthNet.uav[47] utilizationCountIdleState 27
scalar OsgEarthNet.uav[47] utilizationFail 0
scalar OsgEarthNet.uav[47] simulationTime 259200
scalar OsgEarthNet.uav[48] utilizationSecMission 34843.025721974
scalar OsgEarthNet.uav[48] utilizationSecMaintenance 17014.208822959
scalar OsgEarthNet.uav[48] utilizationSecCharge 189573.33910778
scalar OsgEarthNet.uav[48] utilizationSecIdle 17769.42534729
scalar OsgEarthNet.uav[48] utilizationEnergyMission 170494.21137238
scalar OsgEarthNet.uav[48] utilizationEnergyMaintenance 79578.269123077
scalar OsgEarthNet.uav[48] utilizationEnergyCharge 247346.43164062
scalar OsgEarthNet.uav[48] utilizationEnergyOverdrawMission 0
scalar OsgEarthNet.uav[48] utilizationEnergyOverdrawMaintenance 0
scalar OsgEarthNet.uav[48] utilizationCountMissions 55
scalar OsgEarthNet.uav[48] utilizationCountManeuversMission 1297
scalar OsgEarthNet.uav[48] utilizationCountManeuversMaintenance 110
scalar OsgEarthNet.uav[48] utilizationCountChargeState 55
scalar OsgEarthNet.uav[48] utilizationCountOverdrawnAfterMission 0
scalar OsgEarthNet.uav[48] utilizationCountIdleState 49
scalar OsgEarthNet.uav[48] utilizationFail 0
scalar OsgEarthNet.uav[48] simulationTime 259200
scalar OsgEarthNet.uav[49] utilizationSecMission 35563.495318016
scalar OsgEarthNet.uav[49] utilizationSecMaintenance 23337.121689769
scalar OsgEarthNet.uav[49] utilizationSecCharge 198177.38099222
scalar OsgEarthNet.uav[49] utilizationSecIdle 2122.001
scalar OsgEarthNet.uav[49] utilizationEnergyMission 174225.20346069
scalar OsgEarthNet.uav[49] utilizationEnergyMaintenance 110616.29705811
scalar OsgEarthNet.uav[49] utilizationEnergyCharge 283161.95654297
scalar OsgEarthNet.uav[49] utilizationEnergyOverdrawMission 0
scalar OsgEarthNet.uav[49] utilizationEnergyOverdrawMaintenance 0
scalar OsgEarthNet.uav[49] utilizationCountMissions 64
scalar OsgEarthNet.uav[49] utilizationCountManeuversMission 1210
scalar OsgEarthNet.uav[49] utilizationCountManeuversMaintenance 128
scalar OsgEarthNet.uav[49] utilizationCountChargeState 64
scalar OsgEarthNet.uav[49] utilizationCountOverdrawnAfterMission 0
scalar OsgEarthNet.uav[49] utilizationCountIdleState 11
scalar OsgEarthNet.uav[49] utilizationFail 0
scalar OsgEarthNet.uav[49] simulationTime 259200
scalar OsgEarthNet.uav[50] utilizationSecMission 36178.766381187
scalar OsgEarthNet.uav[50] utilizationSecMaintenance 14661.189586942
scalar OsgEarthNet.uav[50] utilizationSecCharge 186013.26674494
scalar OsgEarthNet.uav[50] utilizationSecIdle 22346.776286927
scalar OsgEarthNet.uav[50] utilizationEnergyMission 176538.31427765
scalar OsgEarthNet.uav[50] utilizationEnergyMaintenance 68323.853878021
scalar OsgEarthNet.uav[50] utilizationEnergyCharge 242650.90966797
scalar OsgEarthNet.uav[50] utilizationEnergyOverdrawMission 0
scalar OsgEarthNet.uav[50] utilizationEnergyOverdrawMaintenance 0
scalar OsgEarthNet.uav[50] utilizationCountMissions 53
scalar OsgEarthNet.uav[50] utilizationCountManeuversMission 1249
scalar OsgEarthNet.uav[50] utilizationCountManeuversMaintenance 106
scalar OsgEarthNet.uav[50] utilizationCountChargeState 53
scalar OsgEarthNet.uav[50] utilizationCountOverdrawnAfterMission 0
scalar OsgEarthNet.uav[50] utilizationCountIdleState 49
scalar OsgEarthNet.uav[50] utilizationFail 0
scalar OsgEarthNet.uav[50] simulationTime 259200
scalar OsgEarthNet.uav[51] utilizationSecMission 35428.662640836
scalar OsgEarthNet.uav[51] utilizationSecMaintenance 21027.668181176
scalar OsgEarthNet.uav[51] utilizationSecCharge 195470
scalar OsgEarthNet.uav[51] utilizationSecIdle 7273.6681779877
scalar OsgEarthNet.uav[51] utilizationEnergyMission 172366.70499039
scalar OsgEarthNet.uav[51] utilizationEnergyMaintenance 99235.413727883
scalar OsgEarthNet.uav[51] utilizationEnergyCharge 265575.54492188
scalar OsgEarthNet.uav[51] utilizationEnergyOverdrawMission 0
scalar OsgEarthNet.uav[51] utilizationEnergyOverdrawMaintenance 0
scalar OsgEarthNet.uav[51] utilizationCountMissions 65
scalar OsgEarthNet.uav[51] utilizationCountManeuversMission 1027
scalar OsgEarthNet.uav[51] utilizationCountManeuversMaintenance 130
scalar OsgEarthNet.uav[51] utilizationCountChargeState 64
scalar OsgEarthNet.uav[51] utilizationCountOverdrawnAfterMission 0
scalar OsgEarthNet.uav[51] utilizationCountIdleState 23
scalar OsgEarthNet.uav[51] utilizationFail 0
scalar OsgEarthNet.uav[51] simulationTime 259200
scalar OsgEarthNet.uav[52] utilizationSecMission 36520.540483658
scalar OsgEarthNet.uav[52] utilizationSecMaintenance 15069.541524473
scalar OsgEarthNet.uav[52] utilizationSecCharge 188640.69737795
scalar OsgEarthNet.uav[52] utilizationSecIdle 18969.219613916
scalar OsgEarthNet.uav[52] utilizationEnergyMission 179386.32189941
scalar OsgEarthNet.uav[52] utilizationEnergyMaintenance 68806.319374085
scalar OsgEarthNet.uav[52] utilizationEnergyCharge 246852.63720703
scalar OsgEarthNet.uav[52] utilizationEnergyOverdrawMission 0
scalar OsgEarthNet.uav[52] utilizationEnergyOverdrawMaintenance 0
scalar OsgEarthNet.uav[52] utilizationCountMissions 54
scalar OsgEarthNet.uav[52] utilizationCountManeuversMission 1326
scalar OsgEarthNet.uav[52] utilizationCountManeuversMaintenance 108
scalar OsgEarthNet.uav[52] utilizationCountChargeState 54
scalar OsgEarthNet.uav[52] utilizationCountOverdrawnAfterMission 0
scalar OsgEarthNet.uav[52] utilizationCountIdleState 49
scalar OsgEarthNet.uav[52] utilizationFail 0
scalar OsgEarthNet.uav[52] simulationTime 259200
scalar OsgEarthNet.uav[53] utilizationSecMission 35467.288934686
scalar OsgEarthNet.uav[53] utilizationSecMaintenance 19342.046491763
scalar OsgEarthNet.uav[53] utilizationSecCharge 199978.66357355
scalar OsgEarthNet.uav[53] utilizationSecIdle 4412
scalar OsgEarthNet.uav[53] utilizationEnergyMission 169550.94754791
scalar OsgEarthNet.uav[53] utilizationEnergyMaintenance 91777.978790283
scalar OsgEarthNet.uav[53] utilizationEnergyCharge 260020.89501953
scalar OsgEarthNet.uav[53] utilizationEnergyOverdrawMission 0
scalar OsgEarthNet.uav[53] utilizationEnergyOverdrawMaintenance 0
scalar OsgEarthNet.uav[53] utilizationCountMissions 64
scalar OsgEarthNet.uav[53] utilizationCountManeuversMission 982
scalar OsgEarthNet.uav[53] utilizationCountManeuversMaintenance 128
scalar OsgEarthNet.uav[53] utilizationCountChargeState 64
scalar OsgEarthNet.uav[53] utilizationCountOverdrawnAfterMission 0
scalar OsgEarthNet.uav[53] utilizationCountIdleState 25
scalar OsgEarthNet.uav[53] utilizationFail 0
scalar OsgEarthNet.uav[53] simulationTime 259200
scalar OsgEarthNet.uav[54] utilizationSecMission 34882.265738683
scalar OsgEarthNet.uav[54] utilizationSecMaintenance 19955.727261317
scalar OsgEarthNet.uav[54] utilizationSecCharge 197120
scalar OsgEarthNet.uav[54] utilizationSecIdle 7242.006
scalar OsgEarthNet.uav[54] utilizationEnergyMission 171370.72849274
scalar OsgEarthNet.uav[54] utilizationEnergyMaintenance 94119.899320159
scalar OsgEarthNet.uav[54] utilizationEnergyCharge 259112.62866211
scalar OsgEarthNet.uav[54] utilizationEnergyOverdrawMission 0
scalar OsgEarthNet.uav[54] utilizationEnergyOverdrawMaintenance 0
scalar OsgEarthNet.uav[54] utilizationCountMissions 62
scalar OsgEarthNet.uav[54] utilizationCountManeuversMission 1143
scalar OsgEarthNet.uav[54] utilizationCountManeuversMaintenance 124
scalar OsgEarthNet.uav[54] utilizationCountChargeState 61
scalar OsgEarthNet.uav[54] utilizationCountOverdrawnAfterMission 0
scalar OsgEarthNet.uav[54] utilizationCountIdleState 27
scalar OsgEarthNet.uav[54] utilizationFail 0
scalar OsgEarthNet.uav[54] simulationTime 259200
scalar OsgEarthNet.uav[55] utilizationSecMission 37001.088033668
scalar OsgEarthNet.uav[55] utilizationSecMaintenance 14082.560745511
scalar OsgEarthNet.uav[55] utilizationSecCharge 184130
scalar OsgEarthNet.uav[55] utilizationSecIdle 23986.350220821
scalar OsgEarthNet.uav[55] utilizationEnergyMission 177365.00905934
scalar OsgEarthNet.uav[55] utilizationEnergyMaintenance 64671.816238403
scalar OsgEarthNet.uav[55] utilizationEnergyCharge 239983.05957031
scalar OsgEarthNet.uav[55] utilizationEnergyOverdrawMission 0
scalar OsgEarthNet.uav[55] utilizationEnergyOverdrawMaintenance 0
scalar OsgEarthNet.uav[55] utilizationCountMissions 52
scalar OsgEarthNet.uav[55] utilizationCountManeuversMission 1050
scalar OsgEarthNet.uav[55] utilizationCountManeuversMaintenance 105
scalar OsgEarthNet.uav[55] utilizationCountChargeState 52
scalar OsgEarthNet.uav[55] utilizationCountOverdrawnAfterMission 0
scalar OsgEarthNet.uav[55] utilizationCountIdleState 49
scalar OsgEarthNet.uav[55] utilizationFail 0
scalar OsgEarthNet.uav[55] simulationTime 259200
scalar OsgEarthNet.uav[56] utilizationSecMission 35754.269434267
scalar OsgEarthNet.uav[56] utilizationSecMaintenance 23325.213012465
scalar OsgEarthNet.uav[56] utilizationSecCharge 194438.50655327
scalar OsgEarthNet.uav[56] utilizationSecIdle 5682.01
scalar OsgEarthNet.uav[56] utilizationEnergyMission 174710.72742462
scalar OsgEarthNet.uav[56] utilizationEnergyMaintenance 110823.06619263
scalar OsgEarthNet.uav[56] utilizationEnergyCharge 281991.99157715
scalar OsgEarthNet.uav[56] utilizationEnergyOverdrawMission 0
scalar OsgEarthNet.uav[56] utilizationEnergyOverdrawMaintenance 0
scalar OsgEarthNet.uav[56] utilizationCountMissions 64
scalar OsgEarthNet.uav[56] utilizationCountManeuversMission 1206
scalar OsgEarthNet.uav[56] utilizationCountManeuversMaintenance 128
scalar OsgEarthNet.uav[56] utilizationCountChargeState 64
scalar OsgEarthNet.uav[56] utilizationCountOverdrawnAfterMission 0
scalar OsgEarthNet.uav[56] utilizationCountIdleState 7
scalar OsgEarthNet.uav[56] utilizationFail 0
scalar OsgEarthNet.uav[56] simulationTime 259200
scalar OsgEarthNet.uav[57] utilizationSecMission 35883.67290998
scalar OsgEarthNet.uav[57] utilizationSecMaintenance 19329.001077576
scalar OsgEarthNet.uav[57] utilizationSecCharge 197976.36102677
scalar OsgEarthNet.uav[57] utilizationSecIdle 6010.9639856735
scalar OsgEarthNet.uav[57] utilizationEnergyMission 172856.29090118
scalar OsgEarthNet.uav[57] utilizationEnergyMaintenance 92148.182964325
scalar OsgEarthNet.uav[57] utilizationEnergyCharge 260389.43237305
scalar OsgEarthNet.uav[57] utilizationEnergyOverdrawMission 0
scalar OsgEarthNet.uav[57] utilizationEnergyOverdrawMaintenance 0
scalar OsgEarthNet.uav[57] utilizationCountMissions 64
scalar OsgEarthNet.uav[57] utilizationCountManeuversMission 987
scalar OsgEarthNet.uav[57] utilizationCountManeuversMaintenance 128
scalar OsgEarthNet.uav[57] utilizationCountChargeState 64
scalar OsgEarthNet.uav[57] utilizationCountOverdrawnAfterMission 0
scalar OsgEarthNet.uav[57] utilizationCountIdleState 25
scalar OsgEarthNet.uav[57] utilizationFail 0
scalar OsgEarthNet.uav[57] simulationTime 259200
scalar OsgEarthNet.uav[58] utilizationSecMission 36544.409064928
scalar OsgEarthNet.uav[58] utilizationSecMaintenance 15215.555960903
scalar OsgEarthNet.uav[58] utilizationSecCharge 187878.03097417
scalar OsgEarthNet.uav[58] utilizationSecIdle 19562.003
scalar OsgEarthNet.uav[58] utilizationEnergyMission 179844.26194763
scalar OsgEarthNet.uav[58] utilizationEnergyMaintenance 70393.272159576
scalar OsgEarthNet.uav[58] utilizationEnergyCharge 246015.66650391
scalar OsgEarthNet.uav[58] utilizationEnergyOverdrawMission 0
scalar OsgEarthNet.uav[58] utilizationEnergyOverdrawMaintenance 0
scalar OsgEarthNet.uav[58] utilizationCountMissions 54
scalar OsgEarthNet.uav[58] utilizationCountManeuversMission 1269
scalar OsgEarthNet.uav[58] utilizationCountManeuversMaintenance 108
scalar OsgEarthNet.uav[58] utilizationCountChargeState 54
scalar OsgEarthNet.uav[58] utilizationCountOverdrawnAfterMission 0
scalar OsgEarthNet.uav[58] utilizationCountIdleState 46
scalar OsgEarthNet.uav[58] utilizationFail 0
scalar OsgEarthNet.uav[58] simulationTime 259200
scalar OsgEarthNet.uav[59] utilizationSecMission 34956.539492109
scalar OsgEarthNet.uav[59] utilizationSecMaintenance 16265.829266598
scalar OsgEarthNet.uav[59] utilizationSecCharge 187885.48550134
scalar OsgEarthNet.uav[59] utilizationSecIdle 20092.144739949
scalar OsgEarthNet.uav[59] utilizationEnergyMission 170053.05636215
scalar OsgEarthNet.uav[59] utilizationEnergyMaintenance 74549.190097809
scalar OsgEarthNet.uav[59] utilizationEnergyCharge 244512.51733398
scalar OsgEarthNet.uav[59] utilizationEnergyOverdrawMission 0
scalar OsgEarthNet.uav[59] utilizationEnergyOverdrawMaintenance 0
scalar OsgEarthNet.uav[59] utilizationCountMissions 54
scalar OsgEarthNet.uav[59] utilizationCountManeuversMission 1300
scalar OsgEarthNet.uav[59] utilizationCountManeuversMaintenance 108
scalar OsgEarthNet.uav[59] utilizationCountChargeState 54
scalar OsgEarthNet.uav[59] utilizationCountOverdrawnAfterMission 0
scalar OsgEarthNet.uav[59] utilizationCountIdleState 50
scalar OsgEarthNet.uav[59] utilizationFail 0
scalar OsgEarthNet.uav[59] simulationTime 259200
scalar OsgEarthNet.uav[60] utilizationSecMission 35824.935252611
scalar OsgEarthNet.uav[60] utilizationSecMaintenance 18568.135330234
scalar OsgEarthNet.uav[60] utilizationSecCharge 194672.0679969
scalar OsgEarthNet.uav[60] utilizationSecIdle 10134.86042026
scalar OsgEarthNet.uav[60] utilizationEnergyMission 171496.95003128
scalar OsgEarthNet.uav[60] utilizationEnergyMaintenance 88543.454872131
scalar OsgEarthNet.uav[60] utilizationEnergyCharge 257962.48901367
scalar OsgEarthNet.uav[60] utilizationEnergyOverdrawMission 0
scalar OsgEarthNet.uav[60] utilizationEnergyOverdrawMaintenance 0
scalar OsgEarthNet.uav[60] utilizationCountMissions 60
scalar OsgEarthNet.uav[60] utilizationCountManeuversMission 1041
scalar OsgEarthNet.uav[60] utilizationCountManeuversMaintenance 120
scalar OsgEarthNet.uav[60] utilizationCountChargeState 60
scalar OsgEarthNet.uav[60] utilizationCountOverdrawnAfterMission 0
scalar OsgEarthNet.uav[60] utilizationCountIdleState 30
scalar OsgEarthNet.uav[60] utilizationFail 0
scalar OsgEarthNet.uav[60] simulationTime 259200
scalar OsgEarthNet.uav[61] utilizationSecMission 33706.917277979
scalar OsgEarthNet.uav[61] utilizationSecMaintenance 20260.61650158
scalar OsgEarthNet.uav[61] utilizationSecCharge 201070.46422044
scalar OsgEarthNet.uav[61] utilizationSecIdle 4162.001
scalar OsgEarthNet.uav[61] utilizationEnergyMission 160793.02090836
scalar OsgEarthNet.uav[61] utilizationEnergyMaintenance 96544.089832306
scalar OsgEarthNet.uav[61] utilizationEnergyCharge 256271.9519043
scalar OsgEarthNet.uav[61] utilizationEnergyOverdrawMission 0
scalar OsgEarthNet.uav[61] utilizationEnergyOverdrawMaintenance 0
scalar OsgEarthNet.uav[61] utilizationCountMissions 70
scalar OsgEarthNet.uav[61] utilizationCountManeuversMission 830
scalar OsgEarthNet.uav[61] utilizationCountManeuversMaintenance 140
scalar OsgEarthNet.uav[61] utilizationCountChargeState 70
scalar OsgEarthNet.uav[61] utilizationCountOverdrawnAfterMission 0
scalar OsgEarthNet.uav[61] utilizationCountIdleState 24
scalar OsgEarthNet.uav[61] utilizationFail 0
scalar OsgEarthNet.uav[61] simulationTime 259200
scalar OsgEarthNet.uav[62] utilizationSecMission 34788.90968582
scalar OsgEarthNet.uav[62] utilizationSecMaintenance 16504.38394856
scalar OsgEarthNet.uav[62] utilizationSecCharge 188860
scalar OsgEarthNet.uav[62] utilizationSecIdle 19046.70536562
scalar OsgEarthNet.uav[62] utilizationEnergyMission 170949.71706009
scalar OsgEarthNet.uav[62] utilizationEnergyMaintenance 75456.711156815
scalar OsgEarthNet.uav[62] utilizationEnergyCharge 246873.12646484
scalar OsgEarthNet.uav[62] utilizationEnergyOverdrawMission 0
scalar OsgEarthNet.uav[62] utilizationEnergyOverdrawMaintenance 0
scalar OsgEarthNet.uav[62] utilizationCountMissions 54
scalar OsgEarthNet.uav[62] utilizationCountManeuversMission 1234
scalar OsgEarthNet.uav[62] utilizationCountManeuversMaintenance 109
scalar OsgEarthNet.uav[62] utilizationCountChargeState 54
scalar OsgEarthNet.uav[62] utilizationCountOverdrawnAfterMission 0
scalar OsgEarthNet.uav[62] utilizationCountIdleState 43
scalar OsgEarthNet.uav[62] utilizationFail 0
scalar OsgEarthNet.uav[62] simulationTime 259200
scalar OsgEarthNet.uav[63] utilizationSecMission 37160.927586959
scalar OsgEarthNet.uav[63] utilizationSecMaintenance 14146.06687018
scalar OsgEarthNet.uav[63] utilizationSecCharge 186459.41388115
scalar OsgEarthNet.uav[63] utilizationSecIdle 21433.590661708
scalar OsgEarthNet.uav[63] utilizationEnergyMission 177233.33256149
scalar OsgEarthNet.uav[63] utilizationEnergyMaintenance 64920.306510925
scalar OsgEarthNet.uav[63] utilizationEnergyCharge 244157.91992188
scalar OsgEarthNet.uav[63] utilizationEnergyOverdrawMission 0
scalar OsgEarthNet.uav[63] utilizationEnergyOverdrawMaintenance 0
scalar OsgEarthNet.uav[63] utilizationCountMissions 53
scalar OsgEarthNet.uav[63] utilizationCountManeuversMission 1048
scalar OsgEarthNet.uav[63] utilizationCountManeuversMaintenance 106
scalar OsgEarthNet.uav[63] utilizationCountChargeState 53
scalar OsgEarthNet.uav[63] utilizationCountOverdrawnAfterMission 0
scalar OsgEarthNet.uav[63] utilizationCountIdleState 44
scalar OsgEarthNet.uav[63] utilizationFail 0
scalar OsgEarthNet.uav[63] simulationTime 259200
scalar OsgEarthNet.uav[64] utilizationSecMission 35877.401957206
scalar OsgEarthNet.uav[64] utilizationSecMaintenance 19260.594494228
scalar OsgEarthNet.uav[64] utilizationSecCharge 196400
scalar OsgEarthNet.uav[64] utilizationSecIdle 7662.0025485656
scalar OsgEarthNet.uav[64] utilizationEnergyMission 170951.87586594
scalar OsgEarthNet.uav[64] utilizationEnergyMaintenance 90857.255543742
scalar OsgEarthNet.uav[64] utilizationEnergyCharge 259138.81787109
scalar OsgEarthNet.uav[64] utilizationEnergyOverdrawMission 0
scalar OsgEarthNet.uav[64] utilizationEnergyOverdrawMaintenance 0
scalar OsgEarthNet.uav[64] utilizationCountMissions 63
scalar OsgEarthNet.uav[64] utilizationCountManeuversMission 997
scalar OsgEarthNet.uav[64] utilizationCountManeuversMaintenance 126
scalar OsgEarthNet.uav[64] utilizationCountChargeState 62
scalar OsgEarthNet.uav[64] utilizationCountOverdrawnAfterMission 0
scalar OsgEarthNet.uav[64] utilizationCountIdleState 31
scalar OsgEarthNet.uav[64] utilizationFail 0
scalar OsgEarthNet.uav[64] simulationTime 259200
scalar OsgEarthNet.cs[0] usedPower 4041017.2752343
scalar OsgEarthNet.cs[0] chargedPower 4041017.2752343
scalar OsgEarthNet.cs[0] chargedMobileNodes 133
scalar OsgEarthNet.cs[0] reservations 912
scalar OsgEarthNet.cs[1] usedPower 5705240.395342
scalar OsgEarthNet.cs[1] chargedPower 5705240.395342
scalar OsgEarthNet.cs[1] chargedMobileNodes 631
scalar OsgEarthNet.cs[1] reservations 1417
scalar OsgEarthNet.cs[2] usedPower 6973200.0232382
scalar OsgEarthNet.cs[2] chargedPower 6973200.0232382
scalar OsgEarthNet.cs[2] chargedMobileNodes 1353
scalar OsgEarthNet.cs[2] reservations 1523

