version 2
run Szenario_Hotel_Gabelbach-175-20180712-04:16:16-16528
attr configname Szenario_Hotel_Gabelbach
attr datetime 20180712-04:16:16
attr experiment Szenario_Hotel_Gabelbach
attr inifile omnetpp.ini
attr iterationvars "$replM=2, $biWeight=0.35, $replSearchM=1, $numUAVs=80"
attr iterationvarsf replM=2,biWeight=0.35,replSearchM=1,numUAVs=80-
attr measurement "$replM=2, $biWeight=0.35, $replSearchM=1, $numUAVs=80"
attr network OsgEarthNet
attr processid 16528
attr repetition 7
attr replication #7
attr resultdir results
attr runnumber 175
attr seedset 175
itervar biWeight 0.35
itervar numUAVs 80
itervar replM 2
itervar replSearchM 1
param *.osgEarthScene.scene "\"Szenario_Hotel_Gabelbach.earth\""
param *.playgroundLatitude 50.6830269
param *.playgroundLongitude 10.8538055
param *.playgroundWidth 3500m
param *.playgroundHeight 3500m
param *.cs[0].posX 3537m
param *.cs[0].posY 965m
param *.cs[0].posZ 538m
param *.cs[1].posX 312m
param *.cs[1].posY 1262m
param *.cs[1].posZ 539m
param *.cs[2].posX 2185m
param *.cs[2].posY 3026m
param *.cs[2].posZ 777m
param *.cs[3].posX 10m
param *.cs[3].posY 2200m
param *.cs[3].posZ 560m
param *.cs[4].posX 750m
param *.cs[4].posY 200m
param *.cs[4].posZ 540m
param *.cs[5].posX 2450m
param *.cs[5].posY 180m
param *.cs[5].posZ 524m
param *.cs[6].posX 3140m
param *.cs[6].posY 1790m
param *.cs[6].posZ 606m
param *.numCSs 3
param *.uav[*].replacementMethod 2
param *.uav[*].weightedSumWeight 0.35
param *.missionControl.replacementSearchMethod 1
param *.numUAVs 80
param *.numCSs 3
param *.numUAVs 100
param *.*.timeStep 10s
param *.uav[*].commandPreviewCommandCount 20
param *.missionControl.missionFiles "\"missions\\\\Szenario_WB_Hotel_Gabelbach_Mission_Hotel.waypoints,missions\\\\Szenario_WB_Hotel_Gabelbach_Mission_Kickelhahn.waypoints,missions\\\\Szenario_WB_Hotel_Gabelbach_Mission_Ilmenau_Sportplatz.waypoints,missions\\\\Szenario_WB_Hotel_Gabelbach_Mission_Manebach_Mitte.waypoints,missions\\\\Szenario_WB_Hotel_Gabelbach_Mission_Manebach_Sued.waypoints,missions\\\\Szenario_WB_Hotel_Gabelbach_Hover_HoheSchlaufe.waypoints,missions\\\\Szenario_WB_Hotel_Gabelbach_Hover_Kickelhahn.waypoints,missions\\\\Szenario_WB_Hotel_Gabelbach_Hover_Gabelbachskopf.waypoints,missions\\\\Szenario_WB_Hotel_Gabelbach_Hover_Dachskopf.waypoints\""
param *.uav[0].startX 3537m
param *.uav[0].startY 965m
param *.uav[0].startZ 539m
param *.uav[1].startX 312m
param *.uav[1].startY 1262m
param *.uav[1].startZ 540m
param *.uav[2].startX 2185m
param *.uav[2].startY 3026m
param *.uav[2].startZ 778m
param *.uav[3].startX 3537m
param *.uav[3].startY 965m
param *.uav[3].startZ 539m
param *.uav[4].startX 312m
param *.uav[4].startY 1262m
param *.uav[4].startZ 540m
param *.uav[5].startX 2185m
param *.uav[5].startY 3026m
param *.uav[5].startZ 778m
param *.uav[6].startX 3537m
param *.uav[6].startY 965m
param *.uav[6].startZ 539m
param *.uav[7].startX 312m
param *.uav[7].startY 1262m
param *.uav[7].startZ 540m
param *.uav[8].startX 2185m
param *.uav[8].startY 3026m
param *.uav[8].startZ 778m
param *.uav[9].startX 3537m
param *.uav[9].startY 965m
param *.uav[9].startZ 539m
param *.uav[10].startX 3537m
param *.uav[10].startY 965m
param *.uav[10].startZ 539m
param *.uav[11].startX 312m
param *.uav[11].startY 1262m
param *.uav[11].startZ 540m
param *.uav[12].startX 2185m
param *.uav[12].startY 3026m
param *.uav[12].startZ 778m
param *.uav[13].startX 3537m
param *.uav[13].startY 965m
param *.uav[13].startZ 539m
param *.uav[14].startX 312m
param *.uav[14].startY 1262m
param *.uav[14].startZ 540m
param *.uav[15].startX 2185m
param *.uav[15].startY 3026m
param *.uav[15].startZ 778m
param *.uav[16].startX 3537m
param *.uav[16].startY 965m
param *.uav[16].startZ 539m
param *.uav[17].startX 312m
param *.uav[17].startY 1262m
param *.uav[17].startZ 540m
param *.uav[18].startX 2185m
param *.uav[18].startY 3026m
param *.uav[18].startZ 778m
param *.uav[19].startX 3537m
param *.uav[19].startY 965m
param *.uav[19].startZ 539m
param *.uav[20].startX 3537m
param *.uav[20].startY 965m
param *.uav[20].startZ 539m
param *.uav[21].startX 312m
param *.uav[21].startY 1262m
param *.uav[21].startZ 540m
param *.uav[22].startX 2185m
param *.uav[22].startY 3026m
param *.uav[22].startZ 778m
param *.uav[23].startX 3537m
param *.uav[23].startY 965m
param *.uav[23].startZ 539m
param *.uav[24].startX 312m
param *.uav[24].startY 1262m
param *.uav[24].startZ 540m
param *.uav[25].startX 2185m
param *.uav[25].startY 3026m
param *.uav[25].startZ 778m
param *.uav[26].startX 3537m
param *.uav[26].startY 965m
param *.uav[26].startZ 539m
param *.uav[27].startX 312m
param *.uav[27].startY 1262m
param *.uav[27].startZ 540m
param *.uav[28].startX 2185m
param *.uav[28].startY 3026m
param *.uav[28].startZ 778m
param *.uav[29].startX 3537m
param *.uav[29].startY 965m
param *.uav[29].startZ 539m
param *.uav[30].startX 3537m
param *.uav[30].startY 965m
param *.uav[30].startZ 539m
param *.uav[31].startX 312m
param *.uav[31].startY 1262m
param *.uav[31].startZ 540m
param *.uav[32].startX 2185m
param *.uav[32].startY 3026m
param *.uav[32].startZ 778m
param *.uav[33].startX 3537m
param *.uav[33].startY 965m
param *.uav[33].startZ 539m
param *.uav[34].startX 312m
param *.uav[34].startY 1262m
param *.uav[34].startZ 540m
param *.uav[35].startX 2185m
param *.uav[35].startY 3026m
param *.uav[35].startZ 778m
param *.uav[36].startX 3537m
param *.uav[36].startY 965m
param *.uav[36].startZ 539m
param *.uav[37].startX 312m
param *.uav[37].startY 1262m
param *.uav[37].startZ 540m
param *.uav[38].startX 2185m
param *.uav[38].startY 3026m
param *.uav[38].startZ 778m
param *.uav[39].startX 3537m
param *.uav[39].startY 965m
param *.uav[39].startZ 539m
param *.uav[40].startX 3537m
param *.uav[40].startY 965m
param *.uav[40].startZ 539m
param *.uav[41].startX 312m
param *.uav[41].startY 1262m
param *.uav[41].startZ 540m
param *.uav[42].startX 2185m
param *.uav[42].startY 3026m
param *.uav[42].startZ 778m
param *.uav[43].startX 3537m
param *.uav[43].startY 965m
param *.uav[43].startZ 539m
param *.uav[44].startX 312m
param *.uav[44].startY 1262m
param *.uav[44].startZ 540m
param *.uav[45].startX 2185m
param *.uav[45].startY 3026m
param *.uav[45].startZ 778m
param *.uav[46].startX 3537m
param *.uav[46].startY 965m
param *.uav[46].startZ 539m
param *.uav[47].startX 312m
param *.uav[47].startY 1262m
param *.uav[47].startZ 540m
param *.uav[48].startX 2185m
param *.uav[48].startY 3026m
param *.uav[48].startZ 778m
param *.uav[49].startX 3537m
param *.uav[49].startY 965m
param *.uav[49].startZ 539m
param *.uav[50].startX 3537m
param *.uav[50].startY 965m
param *.uav[50].startZ 539m
param *.uav[51].startX 312m
param *.uav[51].startY 1262m
param *.uav[51].startZ 540m
param *.uav[52].startX 2185m
param *.uav[52].startY 3026m
param *.uav[52].startZ 778m
param *.uav[53].startX 3537m
param *.uav[53].startY 965m
param *.uav[53].startZ 539m
param *.uav[54].startX 312m
param *.uav[54].startY 1262m
param *.uav[54].startZ 540m
param *.uav[55].startX 2185m
param *.uav[55].startY 3026m
param *.uav[55].startZ 778m
param *.uav[56].startX 3537m
param *.uav[56].startY 965m
param *.uav[56].startZ 539m
param *.uav[57].startX 312m
param *.uav[57].startY 1262m
param *.uav[57].startZ 540m
param *.uav[58].startX 2185m
param *.uav[58].startY 3026m
param *.uav[58].startZ 778m
param *.uav[59].startX 3537m
param *.uav[59].startY 965m
param *.uav[59].startZ 539m
param *.uav[60].startX 3537m
param *.uav[60].startY 965m
param *.uav[60].startZ 539m
param *.uav[61].startX 312m
param *.uav[61].startY 1262m
param *.uav[61].startZ 540m
param *.uav[62].startX 2185m
param *.uav[62].startY 3026m
param *.uav[62].startZ 778m
param *.uav[63].startX 3537m
param *.uav[63].startY 965m
param *.uav[63].startZ 539m
param *.uav[64].startX 312m
param *.uav[64].startY 1262m
param *.uav[64].startZ 540m
param *.uav[65].startX 2185m
param *.uav[65].startY 3026m
param *.uav[65].startZ 778m
param *.uav[66].startX 3537m
param *.uav[66].startY 965m
param *.uav[66].startZ 539m
param *.uav[67].startX 312m
param *.uav[67].startY 1262m
param *.uav[67].startZ 540m
param *.uav[68].startX 2185m
param *.uav[68].startY 3026m
param *.uav[68].startZ 778m
param *.uav[69].startX 3537m
param *.uav[69].startY 965m
param *.uav[69].startZ 539m
param *.uav[70].startX 3537m
param *.uav[70].startY 965m
param *.uav[70].startZ 539m
param *.uav[71].startX 312m
param *.uav[71].startY 1262m
param *.uav[71].startZ 540m
param *.uav[72].startX 2185m
param *.uav[72].startY 3026m
param *.uav[72].startZ 778m
param *.uav[73].startX 3537m
param *.uav[73].startY 965m
param *.uav[73].startZ 539m
param *.uav[74].startX 312m
param *.uav[74].startY 1262m
param *.uav[74].startZ 540m
param *.uav[75].startX 2185m
param *.uav[75].startY 3026m
param *.uav[75].startZ 778m
param *.uav[76].startX 3537m
param *.uav[76].startY 965m
param *.uav[76].startZ 539m
param *.uav[77].startX 312m
param *.uav[77].startY 1262m
param *.uav[77].startZ 540m
param *.uav[78].startX 2185m
param *.uav[78].startY 3026m
param *.uav[78].startZ 778m
param *.uav[79].startX 3537m
param *.uav[79].startY 965m
param *.uav[79].startZ 539m
param *.uav[80].startX 3537m
param *.uav[80].startY 965m
param *.uav[80].startZ 539m
param *.uav[81].startX 312m
param *.uav[81].startY 1262m
param *.uav[81].startZ 540m
param *.uav[82].startX 2185m
param *.uav[82].startY 3026m
param *.uav[82].startZ 778m
param *.uav[83].startX 3537m
param *.uav[83].startY 965m
param *.uav[83].startZ 539m
param *.uav[84].startX 312m
param *.uav[84].startY 1262m
param *.uav[84].startZ 540m
param *.uav[85].startX 2185m
param *.uav[85].startY 3026m
param *.uav[85].startZ 778m
param *.uav[86].startX 3537m
param *.uav[86].startY 965m
param *.uav[86].startZ 539m
param *.uav[87].startX 312m
param *.uav[87].startY 1262m
param *.uav[87].startZ 540m
param *.uav[88].startX 2185m
param *.uav[88].startY 3026m
param *.uav[88].startZ 778m
param *.uav[89].startX 3537m
param *.uav[89].startY 965m
param *.uav[89].startZ 539m
param *.uav[90].startX 3537m
param *.uav[90].startY 965m
param *.uav[90].startZ 539m
param *.uav[91].startX 312m
param *.uav[91].startY 1262m
param *.uav[91].startZ 540m
param *.uav[92].startX 2185m
param *.uav[92].startY 3026m
param *.uav[92].startZ 778m
param *.uav[93].startX 3537m
param *.uav[93].startY 965m
param *.uav[93].startZ 539m
param *.uav[94].startX 312m
param *.uav[94].startY 1262m
param *.uav[94].startZ 540m
param *.uav[95].startX 2185m
param *.uav[95].startY 3026m
param *.uav[95].startZ 778m
param *.uav[96].startX 3537m
param *.uav[96].startY 965m
param *.uav[96].startZ 539m
param *.uav[97].startX 312m
param *.uav[97].startY 1262m
param *.uav[97].startZ 540m
param *.uav[98].startX 2185m
param *.uav[98].startY 3026m
param *.uav[98].startZ 778m
param *.uav[99].startX 3537m
param *.uav[99].startY 965m
param *.uav[99].startZ 539m
param *.osgEarthScene.scene "\"boston.earth\""
param *.playgroundLatitude 42.3558
param *.playgroundLongitude -71.0677
param *.playgroundWidth 400m
param *.playgroundHeight 200m
param *.channelController.connectionColor "\"#0000FF40\""
param *.channelController.showConnections false
param *.uav[*].modelURL "\"quadrocopter.small.obj.15.scale.0,0,90.rot\""
param *.uav[*].labelColor "\"#FF7C00CC\""
param *.uav[*].label2Color "\"#FF7C00EE\""
param *.uav[*].batteryCapacity 5200mAh
param *.uav[*].batteryRemaining uav[index].batteryCapacity
param *.uav[*].predictionQuantile 0.95
param *.uav[*].replacementMethod 2
param *.uav[*].weightedSumWeight 0.5
param *.cs[*].modelURL "\"chargingstation_v1.osgt.2.scale.0,0,0.rot.0,0,-15e-1.trans\""
param *.cs[*].spotsWaiting 999
param *.cs[*].spotsCharging 999
param *.cs[*].chargeEffectivenessPercentage 100
param *.cs[*].nonLinearPhaseStartPercentage 85
param *.cs[*].chargeCurrent 6.0A
param *.cs[*].prioritizeFastCharge true
param *.missionControl.replacementSearchMethod 0
param *.*.timeStep 9s

scalar OsgEarthNet.uav[0] utilizationSecMission 9543.7509154817
scalar OsgEarthNet.uav[0] utilizationSecMaintenance 6167.9321515514
scalar OsgEarthNet.uav[0] utilizationSecCharge 58910
scalar OsgEarthNet.uav[0] utilizationSecIdle 184578.31593297
scalar OsgEarthNet.uav[0] utilizationEnergyMission 46647.921062469
scalar OsgEarthNet.uav[0] utilizationEnergyMaintenance 29137.665813446
scalar OsgEarthNet.uav[0] utilizationEnergyCharge 75611.254394531
scalar OsgEarthNet.uav[0] utilizationEnergyOverdrawMission 0
scalar OsgEarthNet.uav[0] utilizationEnergyOverdrawMaintenance 0
scalar OsgEarthNet.uav[0] utilizationCountMissions 17
scalar OsgEarthNet.uav[0] utilizationCountManeuversMission 321
scalar OsgEarthNet.uav[0] utilizationCountManeuversMaintenance 34
scalar OsgEarthNet.uav[0] utilizationCountChargeState 17
scalar OsgEarthNet.uav[0] utilizationCountOverdrawnAfterMission 0
scalar OsgEarthNet.uav[0] utilizationCountIdleState 18
scalar OsgEarthNet.uav[0] utilizationFail 0
scalar OsgEarthNet.uav[0] simulationTime 259200
scalar OsgEarthNet.uav[1] utilizationSecMission 6059.5047294909
scalar OsgEarthNet.uav[1] utilizationSecMaintenance 4475.9737006352
scalar OsgEarthNet.uav[1] utilizationSecCharge 41270
scalar OsgEarthNet.uav[1] utilizationSecIdle 207394.52056987
scalar OsgEarthNet.uav[1] utilizationEnergyMission 30125.554954529
scalar OsgEarthNet.uav[1] utilizationEnergyMaintenance 21295.40328598
scalar OsgEarthNet.uav[1] utilizationEnergyCharge 50535.054931641
scalar OsgEarthNet.uav[1] utilizationEnergyOverdrawMission 0
scalar OsgEarthNet.uav[1] utilizationEnergyOverdrawMaintenance 0
scalar OsgEarthNet.uav[1] utilizationCountMissions 13
scalar OsgEarthNet.uav[1] utilizationCountManeuversMission 228
scalar OsgEarthNet.uav[1] utilizationCountManeuversMaintenance 26
scalar OsgEarthNet.uav[1] utilizationCountChargeState 13
scalar OsgEarthNet.uav[1] utilizationCountOverdrawnAfterMission 0
scalar OsgEarthNet.uav[1] utilizationCountIdleState 14
scalar OsgEarthNet.uav[1] utilizationFail 0
scalar OsgEarthNet.uav[1] simulationTime 259200
scalar OsgEarthNet.uav[2] utilizationSecMission 41548.694465061
scalar OsgEarthNet.uav[2] utilizationSecMaintenance 17031.467720899
scalar OsgEarthNet.uav[2] utilizationSecCharge 196640
scalar OsgEarthNet.uav[2] utilizationSecIdle 3979.83681404
scalar OsgEarthNet.uav[2] utilizationEnergyMission 201116.23061062
scalar OsgEarthNet.uav[2] utilizationEnergyMaintenance 78561.617584229
scalar OsgEarthNet.uav[2] utilizationEnergyCharge 276292.23193359
scalar OsgEarthNet.uav[2] utilizationEnergyOverdrawMission 0
scalar OsgEarthNet.uav[2] utilizationEnergyOverdrawMaintenance 0
scalar OsgEarthNet.uav[2] utilizationCountMissions 60
scalar OsgEarthNet.uav[2] utilizationCountManeuversMission 1288
scalar OsgEarthNet.uav[2] utilizationCountManeuversMaintenance 121
scalar OsgEarthNet.uav[2] utilizationCountChargeState 60
scalar OsgEarthNet.uav[2] utilizationCountOverdrawnAfterMission 0
scalar OsgEarthNet.uav[2] utilizationCountIdleState 11
scalar OsgEarthNet.uav[2] utilizationFail 0
scalar OsgEarthNet.uav[2] simulationTime 259200
scalar OsgEarthNet.uav[3] utilizationSecMission 4161.8754577408
scalar OsgEarthNet.uav[3] utilizationSecMaintenance 2368.9841112256
scalar OsgEarthNet.uav[3] utilizationSecCharge 24220
scalar OsgEarthNet.uav[3] utilizationSecIdle 228449.13943103
scalar OsgEarthNet.uav[3] utilizationEnergyMission 19585.238872528
scalar OsgEarthNet.uav[3] utilizationEnergyMaintenance 11216.508960724
scalar OsgEarthNet.uav[3] utilizationEnergyCharge 31055.604003906
scalar OsgEarthNet.uav[3] utilizationEnergyOverdrawMission 0
scalar OsgEarthNet.uav[3] utilizationEnergyOverdrawMaintenance 0
scalar OsgEarthNet.uav[3] utilizationCountMissions 7
scalar OsgEarthNet.uav[3] utilizationCountManeuversMission 130
scalar OsgEarthNet.uav[3] utilizationCountManeuversMaintenance 14
scalar OsgEarthNet.uav[3] utilizationCountChargeState 7
scalar OsgEarthNet.uav[3] utilizationCountOverdrawnAfterMission 0
scalar OsgEarthNet.uav[3] utilizationCountIdleState 8
scalar OsgEarthNet.uav[3] utilizationFail 0
scalar OsgEarthNet.uav[3] simulationTime 259200
scalar OsgEarthNet.uav[4] utilizationSecMission 24282.592111011
scalar OsgEarthNet.uav[4] utilizationSecMaintenance 16403.339624428
scalar OsgEarthNet.uav[4] utilizationSecCharge 156792.06626456
scalar OsgEarthNet.uav[4] utilizationSecIdle 61722.001
scalar OsgEarthNet.uav[4] utilizationEnergyMission 120754.06170654
scalar OsgEarthNet.uav[4] utilizationEnergyMaintenance 77774.951709747
scalar OsgEarthNet.uav[4] utilizationEnergyCharge 198705.12280273
scalar OsgEarthNet.uav[4] utilizationEnergyOverdrawMission 0
scalar OsgEarthNet.uav[4] utilizationEnergyOverdrawMaintenance 0
scalar OsgEarthNet.uav[4] utilizationCountMissions 47
scalar OsgEarthNet.uav[4] utilizationCountManeuversMission 887
scalar OsgEarthNet.uav[4] utilizationCountManeuversMaintenance 94
scalar OsgEarthNet.uav[4] utilizationCountChargeState 47
scalar OsgEarthNet.uav[4] utilizationCountOverdrawnAfterMission 0
scalar OsgEarthNet.uav[4] utilizationCountIdleState 47
scalar OsgEarthNet.uav[4] utilizationFail 0
scalar OsgEarthNet.uav[4] simulationTime 259200
scalar OsgEarthNet.uav[5] utilizationSecMission 40311.267400692
scalar OsgEarthNet.uav[5] utilizationSecMaintenance 18561.070081161
scalar OsgEarthNet.uav[5] utilizationSecCharge 198268.23617086
scalar OsgEarthNet.uav[5] utilizationSecIdle 2059.4253472904
scalar OsgEarthNet.uav[5] utilizationEnergyMission 196025.04603577
scalar OsgEarthNet.uav[5] utilizationEnergyMaintenance 85608.611167908
scalar OsgEarthNet.uav[5] utilizationEnergyCharge 280346.85791016
scalar OsgEarthNet.uav[5] utilizationEnergyOverdrawMission 0
scalar OsgEarthNet.uav[5] utilizationEnergyOverdrawMaintenance 0
scalar OsgEarthNet.uav[5] utilizationCountMissions 62
scalar OsgEarthNet.uav[5] utilizationCountManeuversMission 1321
scalar OsgEarthNet.uav[5] utilizationCountManeuversMaintenance 124
scalar OsgEarthNet.uav[5] utilizationCountChargeState 62
scalar OsgEarthNet.uav[5] utilizationCountOverdrawnAfterMission 0
scalar OsgEarthNet.uav[5] utilizationCountIdleState 7
scalar OsgEarthNet.uav[5] utilizationFail 0
scalar OsgEarthNet.uav[5] simulationTime 259200
scalar OsgEarthNet.uav[6] utilizationSecMission 41480.053589357
scalar OsgEarthNet.uav[6] utilizationSecMaintenance 17761.534537994
scalar OsgEarthNet.uav[6] utilizationSecCharge 195737.46161698
scalar OsgEarthNet.uav[6] utilizationSecIdle 4220.9492556647
scalar OsgEarthNet.uav[6] utilizationEnergyMission 198956.49091721
scalar OsgEarthNet.uav[6] utilizationEnergyMaintenance 81363.034038544
scalar OsgEarthNet.uav[6] utilizationEnergyCharge 276906.11279297
scalar OsgEarthNet.uav[6] utilizationEnergyOverdrawMission 0
scalar OsgEarthNet.uav[6] utilizationEnergyOverdrawMaintenance 0
scalar OsgEarthNet.uav[6] utilizationCountMissions 61
scalar OsgEarthNet.uav[6] utilizationCountManeuversMission 1149
scalar OsgEarthNet.uav[6] utilizationCountManeuversMaintenance 122
scalar OsgEarthNet.uav[6] utilizationCountChargeState 61
scalar OsgEarthNet.uav[6] utilizationCountOverdrawnAfterMission 0
scalar OsgEarthNet.uav[6] utilizationCountIdleState 11
scalar OsgEarthNet.uav[6] utilizationFail 0
scalar OsgEarthNet.uav[6] simulationTime 259200
scalar OsgEarthNet.uav[7] utilizationSecMission 24602.303640364
scalar OsgEarthNet.uav[7] utilizationSecMaintenance 16991.628271734
scalar OsgEarthNet.uav[7] utilizationSecCharge 160585.10310223
scalar OsgEarthNet.uav[7] utilizationSecIdle 57020.963985674
scalar OsgEarthNet.uav[7] utilizationEnergyMission 119046.17063141
scalar OsgEarthNet.uav[7] utilizationEnergyMaintenance 80936.648971558
scalar OsgEarthNet.uav[7] utilizationEnergyCharge 199099.30810547
scalar OsgEarthNet.uav[7] utilizationEnergyOverdrawMission 0
scalar OsgEarthNet.uav[7] utilizationEnergyOverdrawMaintenance 0
scalar OsgEarthNet.uav[7] utilizationCountMissions 51
scalar OsgEarthNet.uav[7] utilizationCountManeuversMission 805
scalar OsgEarthNet.uav[7] utilizationCountManeuversMaintenance 102
scalar OsgEarthNet.uav[7] utilizationCountChargeState 51
scalar OsgEarthNet.uav[7] utilizationCountOverdrawnAfterMission 0
scalar OsgEarthNet.uav[7] utilizationCountIdleState 51
scalar OsgEarthNet.uav[7] utilizationFail 0
scalar OsgEarthNet.uav[7] simulationTime 259200
scalar OsgEarthNet.uav[8] utilizationSecMission 40518.353541475
scalar OsgEarthNet.uav[8] utilizationSecMaintenance 18176.252263746
scalar OsgEarthNet.uav[8] utilizationSecCharge 196939.93753816
scalar OsgEarthNet.uav[8] utilizationSecIdle 3565.4556566199
scalar OsgEarthNet.uav[8] utilizationEnergyMission 194458.96867371
scalar OsgEarthNet.uav[8] utilizationEnergyMaintenance 84150.352378845
scalar OsgEarthNet.uav[8] utilizationEnergyCharge 279376.23242188
scalar OsgEarthNet.uav[8] utilizationEnergyOverdrawMission 0
scalar OsgEarthNet.uav[8] utilizationEnergyOverdrawMaintenance 0
scalar OsgEarthNet.uav[8] utilizationCountMissions 61
scalar OsgEarthNet.uav[8] utilizationCountManeuversMission 1208
scalar OsgEarthNet.uav[8] utilizationCountManeuversMaintenance 122
scalar OsgEarthNet.uav[8] utilizationCountChargeState 61
scalar OsgEarthNet.uav[8] utilizationCountOverdrawnAfterMission 0
scalar OsgEarthNet.uav[8] utilizationCountIdleState 11
scalar OsgEarthNet.uav[8] utilizationFail 0
scalar OsgEarthNet.uav[8] simulationTime 259200
scalar OsgEarthNet.uav[9] utilizationSecMission 42450.824675587
scalar OsgEarthNet.uav[9] utilizationSecMaintenance 16385.491150697
scalar OsgEarthNet.uav[9] utilizationSecCharge 194659.51939348
scalar OsgEarthNet.uav[9] utilizationSecIdle 5704.1637802358
scalar OsgEarthNet.uav[9] utilizationEnergyMission 202682.73807526
scalar OsgEarthNet.uav[9] utilizationEnergyMaintenance 74505.4907341
scalar OsgEarthNet.uav[9] utilizationEnergyCharge 273531.84802246
scalar OsgEarthNet.uav[9] utilizationEnergyOverdrawMission 0
scalar OsgEarthNet.uav[9] utilizationEnergyOverdrawMaintenance 0
scalar OsgEarthNet.uav[9] utilizationCountMissions 60
scalar OsgEarthNet.uav[9] utilizationCountManeuversMission 1107
scalar OsgEarthNet.uav[9] utilizationCountManeuversMaintenance 120
scalar OsgEarthNet.uav[9] utilizationCountChargeState 60
scalar OsgEarthNet.uav[9] utilizationCountOverdrawnAfterMission 0
scalar OsgEarthNet.uav[9] utilizationCountIdleState 13
scalar OsgEarthNet.uav[9] utilizationFail 0
scalar OsgEarthNet.uav[9] simulationTime 259200
scalar OsgEarthNet.uav[10] utilizationSecMission 16086.360600882
scalar OsgEarthNet.uav[10] utilizationSecMaintenance 10059.372206785
scalar OsgEarthNet.uav[10] utilizationSecCharge 97540
scalar OsgEarthNet.uav[10] utilizationSecIdle 135514.26619233
scalar OsgEarthNet.uav[10] utilizationEnergyMission 78191.089244843
scalar OsgEarthNet.uav[10] utilizationEnergyMaintenance 48129.642044067
scalar OsgEarthNet.uav[10] utilizationEnergyCharge 125362.95849609
scalar OsgEarthNet.uav[10] utilizationEnergyOverdrawMission 0
scalar OsgEarthNet.uav[10] utilizationEnergyOverdrawMaintenance 0
scalar OsgEarthNet.uav[10] utilizationCountMissions 28
scalar OsgEarthNet.uav[10] utilizationCountManeuversMission 527
scalar OsgEarthNet.uav[10] utilizationCountManeuversMaintenance 56
scalar OsgEarthNet.uav[10] utilizationCountChargeState 28
scalar OsgEarthNet.uav[10] utilizationCountOverdrawnAfterMission 0
scalar OsgEarthNet.uav[10] utilizationCountIdleState 29
scalar OsgEarthNet.uav[10] utilizationFail 0
scalar OsgEarthNet.uav[10] simulationTime 259200
scalar OsgEarthNet.uav[11] utilizationSecMission 24029.396644253
scalar OsgEarthNet.uav[11] utilizationSecMaintenance 16583.146080707
scalar OsgEarthNet.uav[11] utilizationSecCharge 156170.14019321
scalar OsgEarthNet.uav[11] utilizationSecIdle 62417.316081831
scalar OsgEarthNet.uav[11] utilizationEnergyMission 117821.16197205
scalar OsgEarthNet.uav[11] utilizationEnergyMaintenance 78653.670696259
scalar OsgEarthNet.uav[11] utilizationEnergyCharge 196617.56762695
scalar OsgEarthNet.uav[11] utilizationEnergyOverdrawMission 0
scalar OsgEarthNet.uav[11] utilizationEnergyOverdrawMaintenance 0
scalar OsgEarthNet.uav[11] utilizationCountMissions 48
scalar OsgEarthNet.uav[11] utilizationCountManeuversMission 859
scalar OsgEarthNet.uav[11] utilizationCountManeuversMaintenance 96
scalar OsgEarthNet.uav[11] utilizationCountChargeState 48
scalar OsgEarthNet.uav[11] utilizationCountOverdrawnAfterMission 0
scalar OsgEarthNet.uav[11] utilizationCountIdleState 48
scalar OsgEarthNet.uav[11] utilizationFail 0
scalar OsgEarthNet.uav[11] simulationTime 259200
scalar OsgEarthNet.uav[12] utilizationSecMission 41104.989746355
scalar OsgEarthNet.uav[12] utilizationSecMaintenance 17863.054530468
scalar OsgEarthNet.uav[12] utilizationSecCharge 197819.95272318
scalar OsgEarthNet.uav[12] utilizationSecIdle 2412.002
scalar OsgEarthNet.uav[12] utilizationEnergyMission 198462.84129715
scalar OsgEarthNet.uav[12] utilizationEnergyMaintenance 83482.660778046
scalar OsgEarthNet.uav[12] utilizationEnergyCharge 277914.02050781
scalar OsgEarthNet.uav[12] utilizationEnergyOverdrawMission 0
scalar OsgEarthNet.uav[12] utilizationEnergyOverdrawMaintenance 0
scalar OsgEarthNet.uav[12] utilizationCountMissions 61
scalar OsgEarthNet.uav[12] utilizationCountManeuversMission 1185
scalar OsgEarthNet.uav[12] utilizationCountManeuversMaintenance 122
scalar OsgEarthNet.uav[12] utilizationCountChargeState 61
scalar OsgEarthNet.uav[12] utilizationCountOverdrawnAfterMission 0
scalar OsgEarthNet.uav[12] utilizationCountIdleState 11
scalar OsgEarthNet.uav[12] utilizationFail 0
scalar OsgEarthNet.uav[12] simulationTime 259200
scalar OsgEarthNet.uav[13] utilizationSecMission 11243.125762901
scalar OsgEarthNet.uav[13] utilizationSecMaintenance 8386.6392196014
scalar OsgEarthNet.uav[13] utilizationSecCharge 73950
scalar OsgEarthNet.uav[13] utilizationSecIdle 165620.2340175
scalar OsgEarthNet.uav[13] utilizationEnergyMission 55542.593589783
scalar OsgEarthNet.uav[13] utilizationEnergyMaintenance 39986.093837738
scalar OsgEarthNet.uav[13] utilizationEnergyCharge 95318.592773438
scalar OsgEarthNet.uav[13] utilizationEnergyOverdrawMission 0
scalar OsgEarthNet.uav[13] utilizationEnergyOverdrawMaintenance 0
scalar OsgEarthNet.uav[13] utilizationCountMissions 21
scalar OsgEarthNet.uav[13] utilizationCountManeuversMission 432
scalar OsgEarthNet.uav[13] utilizationCountManeuversMaintenance 42
scalar OsgEarthNet.uav[13] utilizationCountChargeState 21
scalar OsgEarthNet.uav[13] utilizationCountOverdrawnAfterMission 0
scalar OsgEarthNet.uav[13] utilizationCountIdleState 22
scalar OsgEarthNet.uav[13] utilizationFail 0
scalar OsgEarthNet.uav[13] simulationTime 259200
scalar OsgEarthNet.uav[14] utilizationSecMission 23009.603444115
scalar OsgEarthNet.uav[14] utilizationSecMaintenance 16244.476683422
scalar OsgEarthNet.uav[14] utilizationSecCharge 154160
scalar OsgEarthNet.uav[14] utilizationSecIdle 65785.918872463
scalar OsgEarthNet.uav[14] utilizationEnergyMission 112511.02917099
scalar OsgEarthNet.uav[14] utilizationEnergyMaintenance 77444.912090301
scalar OsgEarthNet.uav[14] utilizationEnergyCharge 190800.87841797
scalar OsgEarthNet.uav[14] utilizationEnergyOverdrawMission 0
scalar OsgEarthNet.uav[14] utilizationEnergyOverdrawMaintenance 0
scalar OsgEarthNet.uav[14] utilizationCountMissions 48
scalar OsgEarthNet.uav[14] utilizationCountManeuversMission 785
scalar OsgEarthNet.uav[14] utilizationCountManeuversMaintenance 96
scalar OsgEarthNet.uav[14] utilizationCountChargeState 48
scalar OsgEarthNet.uav[14] utilizationCountOverdrawnAfterMission 0
scalar OsgEarthNet.uav[14] utilizationCountIdleState 49
scalar OsgEarthNet.uav[14] utilizationFail 0
scalar OsgEarthNet.uav[14] simulationTime 259200
scalar OsgEarthNet.uav[15] utilizationSecMission 41164.650619797
scalar OsgEarthNet.uav[15] utilizationSecMaintenance 18358.039233764
scalar OsgEarthNet.uav[15] utilizationSecCharge 199255.30914644
scalar OsgEarthNet.uav[15] utilizationSecIdle 422
scalar OsgEarthNet.uav[15] utilizationEnergyMission 199083.77999179
scalar OsgEarthNet.uav[15] utilizationEnergyMaintenance 85534.342170715
scalar OsgEarthNet.uav[15] utilizationEnergyCharge 279991.96435547
scalar OsgEarthNet.uav[15] utilizationEnergyOverdrawMission 0
scalar OsgEarthNet.uav[15] utilizationEnergyOverdrawMaintenance 0
scalar OsgEarthNet.uav[15] utilizationCountMissions 62
scalar OsgEarthNet.uav[15] utilizationCountManeuversMission 1271
scalar OsgEarthNet.uav[15] utilizationCountManeuversMaintenance 123
scalar OsgEarthNet.uav[15] utilizationCountChargeState 62
scalar OsgEarthNet.uav[15] utilizationCountOverdrawnAfterMission 0
scalar OsgEarthNet.uav[15] utilizationCountIdleState 8
scalar OsgEarthNet.uav[15] utilizationFail 0
scalar OsgEarthNet.uav[15] simulationTime 259200
scalar OsgEarthNet.uav[16] utilizationSecMission 21528.36827406
scalar OsgEarthNet.uav[16] utilizationSecMaintenance 11756.000911591
scalar OsgEarthNet.uav[16] utilizationSecCharge 121903.62981435
scalar OsgEarthNet.uav[16] utilizationSecIdle 104012
scalar OsgEarthNet.uav[16] utilizationEnergyMission 104546.64973068
scalar OsgEarthNet.uav[16] utilizationEnergyMaintenance 56431.248432159
scalar OsgEarthNet.uav[16] utilizationEnergyCharge 158636.20263672
scalar OsgEarthNet.uav[16] utilizationEnergyOverdrawMission 0
scalar OsgEarthNet.uav[16] utilizationEnergyOverdrawMaintenance 0
scalar OsgEarthNet.uav[16] utilizationCountMissions 35
scalar OsgEarthNet.uav[16] utilizationCountManeuversMission 627
scalar OsgEarthNet.uav[16] utilizationCountManeuversMaintenance 69
scalar OsgEarthNet.uav[16] utilizationCountChargeState 35
scalar OsgEarthNet.uav[16] utilizationCountOverdrawnAfterMission 0
scalar OsgEarthNet.uav[16] utilizationCountIdleState 35
scalar OsgEarthNet.uav[16] utilizationFail 0
scalar OsgEarthNet.uav[16] simulationTime 259200
scalar OsgEarthNet.uav[17] utilizationSecMission 23847.069212337
scalar OsgEarthNet.uav[17] utilizationSecMaintenance 17641.245130998
scalar OsgEarthNet.uav[17] utilizationSecCharge 162719.68465666
scalar OsgEarthNet.uav[17] utilizationSecIdle 54992
scalar OsgEarthNet.uav[17] utilizationEnergyMission 115809.85486984
scalar OsgEarthNet.uav[17] utilizationEnergyMaintenance 83481.899562836
scalar OsgEarthNet.uav[17] utilizationEnergyCharge 198729.33618164
scalar OsgEarthNet.uav[17] utilizationEnergyOverdrawMission 0
scalar OsgEarthNet.uav[17] utilizationEnergyOverdrawMaintenance 0
scalar OsgEarthNet.uav[17] utilizationCountMissions 53
scalar OsgEarthNet.uav[17] utilizationCountManeuversMission 803
scalar OsgEarthNet.uav[17] utilizationCountManeuversMaintenance 106
scalar OsgEarthNet.uav[17] utilizationCountChargeState 53
scalar OsgEarthNet.uav[17] utilizationCountOverdrawnAfterMission 0
scalar OsgEarthNet.uav[17] utilizationCountIdleState 53
scalar OsgEarthNet.uav[17] utilizationFail 0
scalar OsgEarthNet.uav[17] simulationTime 259200
scalar OsgEarthNet.uav[18] utilizationSecMission 41872.593876349
scalar OsgEarthNet.uav[18] utilizationSecMaintenance 16790.496477675
scalar OsgEarthNet.uav[18] utilizationSecCharge 198874.90764598
scalar OsgEarthNet.uav[18] utilizationSecIdle 1662.001
scalar OsgEarthNet.uav[18] utilizationEnergyMission 201490.32118607
scalar OsgEarthNet.uav[18] utilizationEnergyMaintenance 77801.812446594
scalar OsgEarthNet.uav[18] utilizationEnergyCharge 280757.35595703
scalar OsgEarthNet.uav[18] utilizationEnergyOverdrawMission 0
scalar OsgEarthNet.uav[18] utilizationEnergyOverdrawMaintenance 0
scalar OsgEarthNet.uav[18] utilizationCountMissions 61
scalar OsgEarthNet.uav[18] utilizationCountManeuversMission 1262
scalar OsgEarthNet.uav[18] utilizationCountManeuversMaintenance 122
scalar OsgEarthNet.uav[18] utilizationCountChargeState 61
scalar OsgEarthNet.uav[18] utilizationCountOverdrawnAfterMission 0
scalar OsgEarthNet.uav[18] utilizationCountIdleState 14
scalar OsgEarthNet.uav[18] utilizationFail 0
scalar OsgEarthNet.uav[18] simulationTime 259200
scalar OsgEarthNet.uav[19] utilizationSecMission 14736.509564553
scalar OsgEarthNet.uav[19] utilizationSecMaintenance 8882.0778642182
scalar OsgEarthNet.uav[19] utilizationSecCharge 87650
scalar OsgEarthNet.uav[19] utilizationSecIdle 147931.41157123
scalar OsgEarthNet.uav[19] utilizationEnergyMission 71021.218742371
scalar OsgEarthNet.uav[19] utilizationEnergyMaintenance 42184.801933288
scalar OsgEarthNet.uav[19] utilizationEnergyCharge 113171.76953125
scalar OsgEarthNet.uav[19] utilizationEnergyOverdrawMission 0
scalar OsgEarthNet.uav[19] utilizationEnergyOverdrawMaintenance 0
scalar OsgEarthNet.uav[19] utilizationCountMissions 25
scalar OsgEarthNet.uav[19] utilizationCountManeuversMission 472
scalar OsgEarthNet.uav[19] utilizationCountManeuversMaintenance 50
scalar OsgEarthNet.uav[19] utilizationCountChargeState 25
scalar OsgEarthNet.uav[19] utilizationCountOverdrawnAfterMission 0
scalar OsgEarthNet.uav[19] utilizationCountIdleState 26
scalar OsgEarthNet.uav[19] utilizationFail 0
scalar OsgEarthNet.uav[19] simulationTime 259200
scalar OsgEarthNet.uav[20] utilizationSecMission 40454.644956751
scalar OsgEarthNet.uav[20] utilizationSecMaintenance 17814.024087784
scalar OsgEarthNet.uav[20] utilizationSecCharge 195337.43056118
scalar OsgEarthNet.uav[20] utilizationSecIdle 5593.8993942837
scalar OsgEarthNet.uav[20] utilizationEnergyMission 197752.15711594
scalar OsgEarthNet.uav[20] utilizationEnergyMaintenance 82907.087352753
scalar OsgEarthNet.uav[20] utilizationEnergyCharge 277794.67431641
scalar OsgEarthNet.uav[20] utilizationEnergyOverdrawMission 0
scalar OsgEarthNet.uav[20] utilizationEnergyOverdrawMaintenance 0
scalar OsgEarthNet.uav[20] utilizationCountMissions 61
scalar OsgEarthNet.uav[20] utilizationCountManeuversMission 1317
scalar OsgEarthNet.uav[20] utilizationCountManeuversMaintenance 122
scalar OsgEarthNet.uav[20] utilizationCountChargeState 61
scalar OsgEarthNet.uav[20] utilizationCountOverdrawnAfterMission 0
scalar OsgEarthNet.uav[20] utilizationCountIdleState 11
scalar OsgEarthNet.uav[20] utilizationFail 0
scalar OsgEarthNet.uav[20] simulationTime 259200
scalar OsgEarthNet.uav[21] utilizationSecMission 20930.377779412
scalar OsgEarthNet.uav[21] utilizationSecMaintenance 16239.428726247
scalar OsgEarthNet.uav[21] utilizationSecCharge 144648.18849434
scalar OsgEarthNet.uav[21] utilizationSecIdle 77382.004
scalar OsgEarthNet.uav[21] utilizationEnergyMission 102691.40283203
scalar OsgEarthNet.uav[21] utilizationEnergyMaintenance 76767.877155304
scalar OsgEarthNet.uav[21] utilizationEnergyCharge 177861.89794922
scalar OsgEarthNet.uav[21] utilizationEnergyOverdrawMission 0
scalar OsgEarthNet.uav[21] utilizationEnergyOverdrawMaintenance 0
scalar OsgEarthNet.uav[21] utilizationCountMissions 47
scalar OsgEarthNet.uav[21] utilizationCountManeuversMission 792
scalar OsgEarthNet.uav[21] utilizationCountManeuversMaintenance 94
scalar OsgEarthNet.uav[21] utilizationCountChargeState 47
scalar OsgEarthNet.uav[21] utilizationCountOverdrawnAfterMission 0
scalar OsgEarthNet.uav[21] utilizationCountIdleState 47
scalar OsgEarthNet.uav[21] utilizationFail 0
scalar OsgEarthNet.uav[21] simulationTime 259200
scalar OsgEarthNet.uav[22] utilizationSecMission 40536.498185649
scalar OsgEarthNet.uav[22] utilizationSecMaintenance 18450.084571625
scalar OsgEarthNet.uav[22] utilizationSecCharge 198901.41624273
scalar OsgEarthNet.uav[22] utilizationSecIdle 1312
scalar OsgEarthNet.uav[22] utilizationEnergyMission 198069.90613174
scalar OsgEarthNet.uav[22] utilizationEnergyMaintenance 84720.58556366
scalar OsgEarthNet.uav[22] utilizationEnergyCharge 280580.88061523
scalar OsgEarthNet.uav[22] utilizationEnergyOverdrawMission 0
scalar OsgEarthNet.uav[22] utilizationEnergyOverdrawMaintenance 0
scalar OsgEarthNet.uav[22] utilizationCountMissions 62
scalar OsgEarthNet.uav[22] utilizationCountManeuversMission 1348
scalar OsgEarthNet.uav[22] utilizationCountManeuversMaintenance 124
scalar OsgEarthNet.uav[22] utilizationCountChargeState 62
scalar OsgEarthNet.uav[22] utilizationCountOverdrawnAfterMission 0
scalar OsgEarthNet.uav[22] utilizationCountIdleState 14
scalar OsgEarthNet.uav[22] utilizationFail 0
scalar OsgEarthNet.uav[22] simulationTime 259200
scalar OsgEarthNet.uav[23] utilizationSecMission 42160.572854294
scalar OsgEarthNet.uav[23] utilizationSecMaintenance 16853.37330753
scalar OsgEarthNet.uav[23] utilizationSecCharge 199104.05283818
scalar OsgEarthNet.uav[23] utilizationSecIdle 1082
scalar OsgEarthNet.uav[23] utilizationEnergyMission 201530.04016495
scalar OsgEarthNet.uav[23] utilizationEnergyMaintenance 76762.921581268
scalar OsgEarthNet.uav[23] utilizationEnergyCharge 278866.83129883
scalar OsgEarthNet.uav[23] utilizationEnergyOverdrawMission 0
scalar OsgEarthNet.uav[23] utilizationEnergyOverdrawMaintenance 0
scalar OsgEarthNet.uav[23] utilizationCountMissions 61
scalar OsgEarthNet.uav[23] utilizationCountManeuversMission 1160
scalar OsgEarthNet.uav[23] utilizationCountManeuversMaintenance 121
scalar OsgEarthNet.uav[23] utilizationCountChargeState 61
scalar OsgEarthNet.uav[23] utilizationCountOverdrawnAfterMission 0
scalar OsgEarthNet.uav[23] utilizationCountIdleState 13
scalar OsgEarthNet.uav[23] utilizationFail 0
scalar OsgEarthNet.uav[23] simulationTime 259200
scalar OsgEarthNet.uav[24] utilizationSecMission 24461.39477013
scalar OsgEarthNet.uav[24] utilizationSecMaintenance 16212.899796514
scalar OsgEarthNet.uav[24] utilizationSecCharge 156830
scalar OsgEarthNet.uav[24] utilizationSecIdle 61695.704433356
scalar OsgEarthNet.uav[24] utilizationEnergyMission 117537.97914505
scalar OsgEarthNet.uav[24] utilizationEnergyMaintenance 77508.748924255
scalar OsgEarthNet.uav[24] utilizationEnergyCharge 194414.04760742
scalar OsgEarthNet.uav[24] utilizationEnergyOverdrawMission 0
scalar OsgEarthNet.uav[24] utilizationEnergyOverdrawMaintenance 0
scalar OsgEarthNet.uav[24] utilizationCountMissions 49
scalar OsgEarthNet.uav[24] utilizationCountManeuversMission 769
scalar OsgEarthNet.uav[24] utilizationCountManeuversMaintenance 98
scalar OsgEarthNet.uav[24] utilizationCountChargeState 49
scalar OsgEarthNet.uav[24] utilizationCountOverdrawnAfterMission 0
scalar OsgEarthNet.uav[24] utilizationCountIdleState 50
scalar OsgEarthNet.uav[24] utilizationFail 0
scalar OsgEarthNet.uav[24] simulationTime 259200
scalar OsgEarthNet.uav[25] utilizationSecMission 40976.986514865
scalar OsgEarthNet.uav[25] utilizationSecMaintenance 18588.33942582
scalar OsgEarthNet.uav[25] utilizationSecCharge 197502.67005932
scalar OsgEarthNet.uav[25] utilizationSecIdle 2132.003
scalar OsgEarthNet.uav[25] utilizationEnergyMission 199605.25092697
scalar OsgEarthNet.uav[25] utilizationEnergyMaintenance 85909.53868866
scalar OsgEarthNet.uav[25] utilizationEnergyCharge 280572.67962646
scalar OsgEarthNet.uav[25] utilizationEnergyOverdrawMission 0
scalar OsgEarthNet.uav[25] utilizationEnergyOverdrawMaintenance 0
scalar OsgEarthNet.uav[25] utilizationCountMissions 62
scalar OsgEarthNet.uav[25] utilizationCountManeuversMission 1354
scalar OsgEarthNet.uav[25] utilizationCountManeuversMaintenance 124
scalar OsgEarthNet.uav[25] utilizationCountChargeState 62
scalar OsgEarthNet.uav[25] utilizationCountOverdrawnAfterMission 0
scalar OsgEarthNet.uav[25] utilizationCountIdleState 9
scalar OsgEarthNet.uav[25] utilizationFail 0
scalar OsgEarthNet.uav[25] simulationTime 259200
scalar OsgEarthNet.uav[26] utilizationSecMission 15065.001220642
scalar OsgEarthNet.uav[26] utilizationSecMaintenance 10493.227674498
scalar OsgEarthNet.uav[26] utilizationSecCharge 94139.75410486
scalar OsgEarthNet.uav[26] utilizationSecIdle 139502.016
scalar OsgEarthNet.uav[26] utilizationEnergyMission 74917.860637665
scalar OsgEarthNet.uav[26] utilizationEnergyMaintenance 49613.53263855
scalar OsgEarthNet.uav[26] utilizationEnergyCharge 122211.00341797
scalar OsgEarthNet.uav[26] utilizationEnergyOverdrawMission 0
scalar OsgEarthNet.uav[26] utilizationEnergyOverdrawMaintenance 0
scalar OsgEarthNet.uav[26] utilizationCountMissions 27
scalar OsgEarthNet.uav[26] utilizationCountManeuversMission 545
scalar OsgEarthNet.uav[26] utilizationCountManeuversMaintenance 54
scalar OsgEarthNet.uav[26] utilizationCountChargeState 27
scalar OsgEarthNet.uav[26] utilizationCountOverdrawnAfterMission 0
scalar OsgEarthNet.uav[26] utilizationCountIdleState 27
scalar OsgEarthNet.uav[26] utilizationFail 0
scalar OsgEarthNet.uav[26] simulationTime 259200
scalar OsgEarthNet.uav[27] utilizationSecMission 26606.79014755
scalar OsgEarthNet.uav[27] utilizationSecMaintenance 17838.335332287
scalar OsgEarthNet.uav[27] utilizationSecCharge 168982.87052016
scalar OsgEarthNet.uav[27] utilizationSecIdle 45772.003
scalar OsgEarthNet.uav[27] utilizationEnergyMission 132195.3371582
scalar OsgEarthNet.uav[27] utilizationEnergyMaintenance 84085.134872436
scalar OsgEarthNet.uav[27] utilizationEnergyCharge 213272.84765625
scalar OsgEarthNet.uav[27] utilizationEnergyOverdrawMission 0
scalar OsgEarthNet.uav[27] utilizationEnergyOverdrawMaintenance 0
scalar OsgEarthNet.uav[27] utilizationCountMissions 52
scalar OsgEarthNet.uav[27] utilizationCountManeuversMission 905
scalar OsgEarthNet.uav[27] utilizationCountManeuversMaintenance 104
scalar OsgEarthNet.uav[27] utilizationCountChargeState 52
scalar OsgEarthNet.uav[27] utilizationCountOverdrawnAfterMission 0
scalar OsgEarthNet.uav[27] utilizationCountIdleState 51
scalar OsgEarthNet.uav[27] utilizationFail 0
scalar OsgEarthNet.uav[27] simulationTime 259200
scalar OsgEarthNet.uav[28] utilizationSecMission 40936.201953453
scalar OsgEarthNet.uav[28] utilizationSecMaintenance 17951.797046547
scalar OsgEarthNet.uav[28] utilizationSecCharge 199050
scalar OsgEarthNet.uav[28] utilizationSecIdle 1262
scalar OsgEarthNet.uav[28] utilizationEnergyMission 200376.1308238
scalar OsgEarthNet.uav[28] utilizationEnergyMaintenance 82700.537895203
scalar OsgEarthNet.uav[28] utilizationEnergyCharge 279941.79931641
scalar OsgEarthNet.uav[28] utilizationEnergyOverdrawMission 0
scalar OsgEarthNet.uav[28] utilizationEnergyOverdrawMaintenance 0
scalar OsgEarthNet.uav[28] utilizationCountMissions 61
scalar OsgEarthNet.uav[28] utilizationCountManeuversMission 1303
scalar OsgEarthNet.uav[28] utilizationCountManeuversMaintenance 123
scalar OsgEarthNet.uav[28] utilizationCountChargeState 61
scalar OsgEarthNet.uav[28] utilizationCountOverdrawnAfterMission 0
scalar OsgEarthNet.uav[28] utilizationCountIdleState 10
scalar OsgEarthNet.uav[28] utilizationFail 0
scalar OsgEarthNet.uav[28] simulationTime 259200
scalar OsgEarthNet.uav[29] utilizationSecMission 22730.627593865
scalar OsgEarthNet.uav[29] utilizationSecMaintenance 12867.371406135
scalar OsgEarthNet.uav[29] utilizationSecCharge 130550
scalar OsgEarthNet.uav[29] utilizationSecIdle 93052
scalar OsgEarthNet.uav[29] utilizationEnergyMission 108081.32104111
scalar OsgEarthNet.uav[29] utilizationEnergyMaintenance 61603.644532091
scalar OsgEarthNet.uav[29] utilizationEnergyCharge 168570.70996094
scalar OsgEarthNet.uav[29] utilizationEnergyOverdrawMission 0
scalar OsgEarthNet.uav[29] utilizationEnergyOverdrawMaintenance 0
scalar OsgEarthNet.uav[29] utilizationCountMissions 38
scalar OsgEarthNet.uav[29] utilizationCountManeuversMission 694
scalar OsgEarthNet.uav[29] utilizationCountManeuversMaintenance 76
scalar OsgEarthNet.uav[29] utilizationCountChargeState 37
scalar OsgEarthNet.uav[29] utilizationCountOverdrawnAfterMission 0
scalar OsgEarthNet.uav[29] utilizationCountIdleState 38
scalar OsgEarthNet.uav[29] utilizationFail 0
scalar OsgEarthNet.uav[29] simulationTime 259200
scalar OsgEarthNet.uav[30] utilizationSecMission 17706.985753462
scalar OsgEarthNet.uav[30] utilizationSecMaintenance 11147.441932829
scalar OsgEarthNet.uav[30] utilizationSecCharge 106934.37574623
scalar OsgEarthNet.uav[30] utilizationSecIdle 123411.19556748
scalar OsgEarthNet.uav[30] utilizationEnergyMission 85582.382061005
scalar OsgEarthNet.uav[30] utilizationEnergyMaintenance 53081.594623566
scalar OsgEarthNet.uav[30] utilizationEnergyCharge 138861.03930664
scalar OsgEarthNet.uav[30] utilizationEnergyOverdrawMission 0
scalar OsgEarthNet.uav[30] utilizationEnergyOverdrawMaintenance 0
scalar OsgEarthNet.uav[30] utilizationCountMissions 31
scalar OsgEarthNet.uav[30] utilizationCountManeuversMission 582
scalar OsgEarthNet.uav[30] utilizationCountManeuversMaintenance 62
scalar OsgEarthNet.uav[30] utilizationCountChargeState 31
scalar OsgEarthNet.uav[30] utilizationCountOverdrawnAfterMission 0
scalar OsgEarthNet.uav[30] utilizationCountIdleState 31
scalar OsgEarthNet.uav[30] utilizationFail 0
scalar OsgEarthNet.uav[30] simulationTime 259200
scalar OsgEarthNet.uav[31] utilizationSecMission 24855.499107123
scalar OsgEarthNet.uav[31] utilizationSecMaintenance 17242.492892877
scalar OsgEarthNet.uav[31] utilizationSecCharge 165320
scalar OsgEarthNet.uav[31] utilizationSecIdle 51782.007
scalar OsgEarthNet.uav[31] utilizationEnergyMission 122637.59903717
scalar OsgEarthNet.uav[31] utilizationEnergyMaintenance 82171.603735932
scalar OsgEarthNet.uav[31] utilizationEnergyCharge 205425.36328125
scalar OsgEarthNet.uav[31] utilizationEnergyOverdrawMission 0
scalar OsgEarthNet.uav[31] utilizationEnergyOverdrawMaintenance 0
scalar OsgEarthNet.uav[31] utilizationCountMissions 51
scalar OsgEarthNet.uav[31] utilizationCountManeuversMission 833
scalar OsgEarthNet.uav[31] utilizationCountManeuversMaintenance 103
scalar OsgEarthNet.uav[31] utilizationCountChargeState 51
scalar OsgEarthNet.uav[31] utilizationCountOverdrawnAfterMission 0
scalar OsgEarthNet.uav[31] utilizationCountIdleState 52
scalar OsgEarthNet.uav[31] utilizationFail 0
scalar OsgEarthNet.uav[31] simulationTime 259200
scalar OsgEarthNet.uav[32] utilizationSecMission 42486.354407817
scalar OsgEarthNet.uav[32] utilizationSecMaintenance 16114.475395225
scalar OsgEarthNet.uav[32] utilizationSecCharge 199367.16919696
scalar OsgEarthNet.uav[32] utilizationSecIdle 1232
scalar OsgEarthNet.uav[32] utilizationEnergyMission 201471.87975919
scalar OsgEarthNet.uav[32] utilizationEnergyMaintenance 74988.200515747
scalar OsgEarthNet.uav[32] utilizationEnergyCharge 278041.01464844
scalar OsgEarthNet.uav[32] utilizationEnergyOverdrawMission 0
scalar OsgEarthNet.uav[32] utilizationEnergyOverdrawMaintenance 0
scalar OsgEarthNet.uav[32] utilizationCountMissions 60
scalar OsgEarthNet.uav[32] utilizationCountManeuversMission 1070
scalar OsgEarthNet.uav[32] utilizationCountManeuversMaintenance 119
scalar OsgEarthNet.uav[32] utilizationCountChargeState 60
scalar OsgEarthNet.uav[32] utilizationCountOverdrawnAfterMission 0
scalar OsgEarthNet.uav[32] utilizationCountIdleState 12
scalar OsgEarthNet.uav[32] utilizationFail 0
scalar OsgEarthNet.uav[32] simulationTime 259200
scalar OsgEarthNet.uav[33] utilizationSecMission 21548.126983544
scalar OsgEarthNet.uav[33] utilizationSecMaintenance 14221.116408247
scalar OsgEarthNet.uav[33] utilizationSecCharge 130738.75460821
scalar OsgEarthNet.uav[33] utilizationSecIdle 92692.001
scalar OsgEarthNet.uav[33] utilizationEnergyMission 104570.10021973
scalar OsgEarthNet.uav[33] utilizationEnergyMaintenance 67202.300666809
scalar OsgEarthNet.uav[33] utilizationEnergyCharge 169049.99511719
scalar OsgEarthNet.uav[33] utilizationEnergyOverdrawMission 0
scalar OsgEarthNet.uav[33] utilizationEnergyOverdrawMaintenance 0
scalar OsgEarthNet.uav[33] utilizationCountMissions 38
scalar OsgEarthNet.uav[33] utilizationCountManeuversMission 739
scalar OsgEarthNet.uav[33] utilizationCountManeuversMaintenance 76
scalar OsgEarthNet.uav[33] utilizationCountChargeState 38
scalar OsgEarthNet.uav[33] utilizationCountOverdrawnAfterMission 0
scalar OsgEarthNet.uav[33] utilizationCountIdleState 38
scalar OsgEarthNet.uav[33] utilizationFail 0
scalar OsgEarthNet.uav[33] simulationTime 259200
scalar OsgEarthNet.uav[34] utilizationSecMission 25419.5465477
scalar OsgEarthNet.uav[34] utilizationSecMaintenance 17898.4524523
scalar OsgEarthNet.uav[34] utilizationSecCharge 170520
scalar OsgEarthNet.uav[34] utilizationSecIdle 45362
scalar OsgEarthNet.uav[34] utilizationEnergyMission 124894.1958046
scalar OsgEarthNet.uav[34] utilizationEnergyMaintenance 84968.912133864
scalar OsgEarthNet.uav[34] utilizationEnergyCharge 209702.56201172
scalar OsgEarthNet.uav[34] utilizationEnergyOverdrawMission 0
scalar OsgEarthNet.uav[34] utilizationEnergyOverdrawMaintenance 0
scalar OsgEarthNet.uav[34] utilizationCountMissions 54
scalar OsgEarthNet.uav[34] utilizationCountManeuversMission 842
scalar OsgEarthNet.uav[34] utilizationCountManeuversMaintenance 108
scalar OsgEarthNet.uav[34] utilizationCountChargeState 54
scalar OsgEarthNet.uav[34] utilizationCountOverdrawnAfterMission 0
scalar OsgEarthNet.uav[34] utilizationCountIdleState 55
scalar OsgEarthNet.uav[34] utilizationFail 0
scalar OsgEarthNet.uav[34] simulationTime 259200
scalar OsgEarthNet.uav[35] utilizationSecMission 42303.69850984
scalar OsgEarthNet.uav[35] utilizationSecMaintenance 17165.844384175
scalar OsgEarthNet.uav[35] utilizationSecCharge 196384.10588737
scalar OsgEarthNet.uav[35] utilizationSecIdle 3346.3502186181
scalar OsgEarthNet.uav[35] utilizationEnergyMission 203951.43021774
scalar OsgEarthNet.uav[35] utilizationEnergyMaintenance 79453.461299896
scalar OsgEarthNet.uav[35] utilizationEnergyCharge 277818.4342041
scalar OsgEarthNet.uav[35] utilizationEnergyOverdrawMission 0
scalar OsgEarthNet.uav[35] utilizationEnergyOverdrawMaintenance 0
scalar OsgEarthNet.uav[35] utilizationCountMissions 61
scalar OsgEarthNet.uav[35] utilizationCountManeuversMission 1178
scalar OsgEarthNet.uav[35] utilizationCountManeuversMaintenance 122
scalar OsgEarthNet.uav[35] utilizationCountChargeState 61
scalar OsgEarthNet.uav[35] utilizationCountOverdrawnAfterMission 0
scalar OsgEarthNet.uav[35] utilizationCountIdleState 13
scalar OsgEarthNet.uav[35] utilizationFail 0
scalar OsgEarthNet.uav[35] simulationTime 259200
scalar OsgEarthNet.uav[36] utilizationSecMission 18695.884411973
scalar OsgEarthNet.uav[36] utilizationSecMaintenance 13065.810280067
scalar OsgEarthNet.uav[36] utilizationSecCharge 116646.29530796
scalar OsgEarthNet.uav[36] utilizationSecIdle 110792.009
scalar OsgEarthNet.uav[36] utilizationEnergyMission 91664.805580139
scalar OsgEarthNet.uav[36] utilizationEnergyMaintenance 61997.681419372
scalar OsgEarthNet.uav[36] utilizationEnergyCharge 150762.81347656
scalar OsgEarthNet.uav[36] utilizationEnergyOverdrawMission 0
scalar OsgEarthNet.uav[36] utilizationEnergyOverdrawMaintenance 0
scalar OsgEarthNet.uav[36] utilizationCountMissions 34
scalar OsgEarthNet.uav[36] utilizationCountManeuversMission 696
scalar OsgEarthNet.uav[36] utilizationCountManeuversMaintenance 68
scalar OsgEarthNet.uav[36] utilizationCountChargeState 34
scalar OsgEarthNet.uav[36] utilizationCountOverdrawnAfterMission 0
scalar OsgEarthNet.uav[36] utilizationCountIdleState 34
scalar OsgEarthNet.uav[36] utilizationFail 0
scalar OsgEarthNet.uav[36] simulationTime 259200
scalar OsgEarthNet.uav[37] utilizationSecMission 25802.592111011
scalar OsgEarthNet.uav[37] utilizationSecMaintenance 17599.511015584
scalar OsgEarthNet.uav[37] utilizationSecCharge 163003.19017437
scalar OsgEarthNet.uav[37] utilizationSecIdle 52794.705699036
scalar OsgEarthNet.uav[37] utilizationEnergyMission 128423.4322319
scalar OsgEarthNet.uav[37] utilizationEnergyMaintenance 82705.793949127
scalar OsgEarthNet.uav[37] utilizationEnergyCharge 205087.94927979
scalar OsgEarthNet.uav[37] utilizationEnergyOverdrawMission 0
scalar OsgEarthNet.uav[37] utilizationEnergyOverdrawMaintenance 0
scalar OsgEarthNet.uav[37] utilizationCountMissions 50
scalar OsgEarthNet.uav[37] utilizationCountManeuversMission 963
scalar OsgEarthNet.uav[37] utilizationCountManeuversMaintenance 100
scalar OsgEarthNet.uav[37] utilizationCountChargeState 50
scalar OsgEarthNet.uav[37] utilizationCountOverdrawnAfterMission 0
scalar OsgEarthNet.uav[37] utilizationCountIdleState 50
scalar OsgEarthNet.uav[37] utilizationFail 0
scalar OsgEarthNet.uav[37] simulationTime 259200
scalar OsgEarthNet.uav[38] utilizationSecMission 27319.438927299
scalar OsgEarthNet.uav[38] utilizationSecMaintenance 17523.630927825
scalar OsgEarthNet.uav[38] utilizationSecCharge 169674.92514488
scalar OsgEarthNet.uav[38] utilizationSecIdle 44682.004
scalar OsgEarthNet.uav[38] utilizationEnergyMission 131271.39124298
scalar OsgEarthNet.uav[38] utilizationEnergyMaintenance 82131.552520752
scalar OsgEarthNet.uav[38] utilizationEnergyCharge 210962.08703613
scalar OsgEarthNet.uav[38] utilizationEnergyOverdrawMission 0
scalar OsgEarthNet.uav[38] utilizationEnergyOverdrawMaintenance 0
scalar OsgEarthNet.uav[38] utilizationCountMissions 56
scalar OsgEarthNet.uav[38] utilizationCountManeuversMission 839
scalar OsgEarthNet.uav[38] utilizationCountManeuversMaintenance 112
scalar OsgEarthNet.uav[38] utilizationCountChargeState 56
scalar OsgEarthNet.uav[38] utilizationCountOverdrawnAfterMission 0
scalar OsgEarthNet.uav[38] utilizationCountIdleState 49
scalar OsgEarthNet.uav[38] utilizationFail 0
scalar OsgEarthNet.uav[38] simulationTime 259200
scalar OsgEarthNet.uav[39] utilizationSecMission 23270.381679151
scalar OsgEarthNet.uav[39] utilizationSecMaintenance 13731.941079788
scalar OsgEarthNet.uav[39] utilizationSecCharge 136801.72699803
scalar OsgEarthNet.uav[39] utilizationSecIdle 85395.94924303
scalar OsgEarthNet.uav[39] utilizationEnergyMission 112105.52470779
scalar OsgEarthNet.uav[39] utilizationEnergyMaintenance 65266.969329834
scalar OsgEarthNet.uav[39] utilizationEnergyCharge 177156.06591797
scalar OsgEarthNet.uav[39] utilizationEnergyOverdrawMission 0
scalar OsgEarthNet.uav[39] utilizationEnergyOverdrawMaintenance 0
scalar OsgEarthNet.uav[39] utilizationCountMissions 39
scalar OsgEarthNet.uav[39] utilizationCountManeuversMission 716
scalar OsgEarthNet.uav[39] utilizationCountManeuversMaintenance 78
scalar OsgEarthNet.uav[39] utilizationCountChargeState 39
scalar OsgEarthNet.uav[39] utilizationCountOverdrawnAfterMission 0
scalar OsgEarthNet.uav[39] utilizationCountIdleState 39
scalar OsgEarthNet.uav[39] utilizationFail 0
scalar OsgEarthNet.uav[39] simulationTime 259200
scalar OsgEarthNet.uav[40] utilizationSecMission 40566.562027077
scalar OsgEarthNet.uav[40] utilizationSecMaintenance 17685.76021644
scalar OsgEarthNet.uav[40] utilizationSecCharge 196505.68501306
scalar OsgEarthNet.uav[40] utilizationSecIdle 4441.9917434202
scalar OsgEarthNet.uav[40] utilizationEnergyMission 200107.70127869
scalar OsgEarthNet.uav[40] utilizationEnergyMaintenance 82080.966438293
scalar OsgEarthNet.uav[40] utilizationEnergyCharge 277711.7199707
scalar OsgEarthNet.uav[40] utilizationEnergyOverdrawMission 0
scalar OsgEarthNet.uav[40] utilizationEnergyOverdrawMaintenance 0
scalar OsgEarthNet.uav[40] utilizationCountMissions 61
scalar OsgEarthNet.uav[40] utilizationCountManeuversMission 1315
scalar OsgEarthNet.uav[40] utilizationCountManeuversMaintenance 122
scalar OsgEarthNet.uav[40] utilizationCountChargeState 61
scalar OsgEarthNet.uav[40] utilizationCountOverdrawnAfterMission 0
scalar OsgEarthNet.uav[40] utilizationCountIdleState 6
scalar OsgEarthNet.uav[40] utilizationFail 0
scalar OsgEarthNet.uav[40] simulationTime 259200
scalar OsgEarthNet.uav[41] utilizationSecMission 27037.951668117
scalar OsgEarthNet.uav[41] utilizationSecMaintenance 18397.435442366
scalar OsgEarthNet.uav[41] utilizationSecCharge 174080
scalar OsgEarthNet.uav[41] utilizationSecIdle 39684.611889516
scalar OsgEarthNet.uav[41] utilizationEnergyMission 129857.05738068
scalar OsgEarthNet.uav[41] utilizationEnergyMaintenance 87969.025813162
scalar OsgEarthNet.uav[41] utilizationEnergyCharge 214346.36303711
scalar OsgEarthNet.uav[41] utilizationEnergyOverdrawMission 0
scalar OsgEarthNet.uav[41] utilizationEnergyOverdrawMaintenance 0
scalar OsgEarthNet.uav[41] utilizationCountMissions 56
scalar OsgEarthNet.uav[41] utilizationCountManeuversMission 845
scalar OsgEarthNet.uav[41] utilizationCountManeuversMaintenance 112
scalar OsgEarthNet.uav[41] utilizationCountChargeState 55
scalar OsgEarthNet.uav[41] utilizationCountOverdrawnAfterMission 0
scalar OsgEarthNet.uav[41] utilizationCountIdleState 56
scalar OsgEarthNet.uav[41] utilizationFail 0
scalar OsgEarthNet.uav[41] simulationTime 259200
scalar OsgEarthNet.uav[42] utilizationSecMission 42425.891615451
scalar OsgEarthNet.uav[42] utilizationSecMaintenance 17016.129573476
scalar OsgEarthNet.uav[42] utilizationSecCharge 198115.97681107
scalar OsgEarthNet.uav[42] utilizationSecIdle 1642.001
scalar OsgEarthNet.uav[42] utilizationEnergyMission 202236.53512192
scalar OsgEarthNet.uav[42] utilizationEnergyMaintenance 78000.004085541
scalar OsgEarthNet.uav[42] utilizationEnergyCharge 279759.93017578
scalar OsgEarthNet.uav[42] utilizationEnergyOverdrawMission 0
scalar OsgEarthNet.uav[42] utilizationEnergyOverdrawMaintenance 0
scalar OsgEarthNet.uav[42] utilizationCountMissions 61
scalar OsgEarthNet.uav[42] utilizationCountManeuversMission 1218
scalar OsgEarthNet.uav[42] utilizationCountManeuversMaintenance 122
scalar OsgEarthNet.uav[42] utilizationCountChargeState 61
scalar OsgEarthNet.uav[42] utilizationCountOverdrawnAfterMission 0
scalar OsgEarthNet.uav[42] utilizationCountIdleState 11
scalar OsgEarthNet.uav[42] utilizationFail 0
scalar OsgEarthNet.uav[42] simulationTime 259200
scalar OsgEarthNet.uav[43] utilizationSecMission 18677.759869714
scalar OsgEarthNet.uav[43] utilizationSecMaintenance 11757.679564104
scalar OsgEarthNet.uav[43] utilizationSecCharge 112850
scalar OsgEarthNet.uav[43] utilizationSecIdle 115914.55956618
scalar OsgEarthNet.uav[43] utilizationEnergyMission 90665.784992218
scalar OsgEarthNet.uav[43] utilizationEnergyMaintenance 55689.392089844
scalar OsgEarthNet.uav[43] utilizationEnergyCharge 145864.79052734
scalar OsgEarthNet.uav[43] utilizationEnergyOverdrawMission 0
scalar OsgEarthNet.uav[43] utilizationEnergyOverdrawMaintenance 0
scalar OsgEarthNet.uav[43] utilizationCountMissions 32
scalar OsgEarthNet.uav[43] utilizationCountManeuversMission 617
scalar OsgEarthNet.uav[43] utilizationCountManeuversMaintenance 64
scalar OsgEarthNet.uav[43] utilizationCountChargeState 32
scalar OsgEarthNet.uav[43] utilizationCountOverdrawnAfterMission 0
scalar OsgEarthNet.uav[43] utilizationCountIdleState 33
scalar OsgEarthNet.uav[43] utilizationFail 0
scalar OsgEarthNet.uav[43] simulationTime 259200
scalar OsgEarthNet.uav[44] utilizationSecMission 26395.273149091
scalar OsgEarthNet.uav[44] utilizationSecMaintenance 17553.668055715
scalar OsgEarthNet.uav[44] utilizationSecCharge 168330
scalar OsgEarthNet.uav[44] utilizationSecIdle 46921.057795193
scalar OsgEarthNet.uav[44] utilizationEnergyMission 128073.70241512
scalar OsgEarthNet.uav[44] utilizationEnergyMaintenance 83231.415931702
scalar OsgEarthNet.uav[44] utilizationEnergyCharge 209287.69262695
scalar OsgEarthNet.uav[44] utilizationEnergyOverdrawMission 0
scalar OsgEarthNet.uav[44] utilizationEnergyOverdrawMaintenance 0
scalar OsgEarthNet.uav[44] utilizationCountMissions 52
scalar OsgEarthNet.uav[44] utilizationCountManeuversMission 866
scalar OsgEarthNet.uav[44] utilizationCountManeuversMaintenance 105
scalar OsgEarthNet.uav[44] utilizationCountChargeState 52
scalar OsgEarthNet.uav[44] utilizationCountOverdrawnAfterMission 0
scalar OsgEarthNet.uav[44] utilizationCountIdleState 53
scalar OsgEarthNet.uav[44] utilizationFail 0
scalar OsgEarthNet.uav[44] simulationTime 259200
scalar OsgEarthNet.uav[45] utilizationSecMission 40769.475380578
scalar OsgEarthNet.uav[45] utilizationSecMaintenance 18056.077145051
scalar OsgEarthNet.uav[45] utilizationSecCharge 198172.99351244
scalar OsgEarthNet.uav[45] utilizationSecIdle 2201.4529619338
scalar OsgEarthNet.uav[45] utilizationEnergyMission 193913.35933685
scalar OsgEarthNet.uav[45] utilizationEnergyMaintenance 82605.567329407
scalar OsgEarthNet.uav[45] utilizationEnergyCharge 279162.80029297
scalar OsgEarthNet.uav[45] utilizationEnergyOverdrawMission 0
scalar OsgEarthNet.uav[45] utilizationEnergyOverdrawMaintenance 0
scalar OsgEarthNet.uav[45] utilizationCountMissions 61
scalar OsgEarthNet.uav[45] utilizationCountManeuversMission 1111
scalar OsgEarthNet.uav[45] utilizationCountManeuversMaintenance 122
scalar OsgEarthNet.uav[45] utilizationCountChargeState 61
scalar OsgEarthNet.uav[45] utilizationCountOverdrawnAfterMission 0
scalar OsgEarthNet.uav[45] utilizationCountIdleState 9
scalar OsgEarthNet.uav[45] utilizationFail 0
scalar OsgEarthNet.uav[45] simulationTime 259200
scalar OsgEarthNet.uav[46] utilizationSecMission 19387.392755884
scalar OsgEarthNet.uav[46] utilizationSecMaintenance 12873.696534759
scalar OsgEarthNet.uav[46] utilizationSecCharge 119490
scalar OsgEarthNet.uav[46] utilizationSecIdle 107448.90970936
scalar OsgEarthNet.uav[46] utilizationEnergyMission 95325.552742004
scalar OsgEarthNet.uav[46] utilizationEnergyMaintenance 60644.070884704
scalar OsgEarthNet.uav[46] utilizationEnergyCharge 154225.34277344
scalar OsgEarthNet.uav[46] utilizationEnergyOverdrawMission 0
scalar OsgEarthNet.uav[46] utilizationEnergyOverdrawMaintenance 0
scalar OsgEarthNet.uav[46] utilizationCountMissions 34
scalar OsgEarthNet.uav[46] utilizationCountManeuversMission 674
scalar OsgEarthNet.uav[46] utilizationCountManeuversMaintenance 68
scalar OsgEarthNet.uav[46] utilizationCountChargeState 34
scalar OsgEarthNet.uav[46] utilizationCountOverdrawnAfterMission 0
scalar OsgEarthNet.uav[46] utilizationCountIdleState 35
scalar OsgEarthNet.uav[46] utilizationFail 0
scalar OsgEarthNet.uav[46] simulationTime 259200
scalar OsgEarthNet.uav[47] utilizationSecMission 26340.692699758
scalar OsgEarthNet.uav[47] utilizationSecMaintenance 17458.330833416
scalar OsgEarthNet.uav[47] utilizationSecCharge 169778.96646683
scalar OsgEarthNet.uav[47] utilizationSecIdle 45622.009
scalar OsgEarthNet.uav[47] utilizationEnergyMission 128779.6182785
scalar OsgEarthNet.uav[47] utilizationEnergyMaintenance 82964.317470551
scalar OsgEarthNet.uav[47] utilizationEnergyCharge 211686.11010742
scalar OsgEarthNet.uav[47] utilizationEnergyOverdrawMission 0
scalar OsgEarthNet.uav[47] utilizationEnergyOverdrawMaintenance 0
scalar OsgEarthNet.uav[47] utilizationCountMissions 53
scalar OsgEarthNet.uav[47] utilizationCountManeuversMission 811
scalar OsgEarthNet.uav[47] utilizationCountManeuversMaintenance 106
scalar OsgEarthNet.uav[47] utilizationCountChargeState 53
scalar OsgEarthNet.uav[47] utilizationCountOverdrawnAfterMission 0
scalar OsgEarthNet.uav[47] utilizationCountIdleState 53
scalar OsgEarthNet.uav[47] utilizationFail 0
scalar OsgEarthNet.uav[47] simulationTime 259200
scalar OsgEarthNet.uav[48] utilizationSecMission 41467.412927306
scalar OsgEarthNet.uav[48] utilizationSecMaintenance 16817.242840202
scalar OsgEarthNet.uav[48] utilizationSecCharge 197283.34023249
scalar OsgEarthNet.uav[48] utilizationSecIdle 3632.003
scalar OsgEarthNet.uav[48] utilizationEnergyMission 200073.12216568
scalar OsgEarthNet.uav[48] utilizationEnergyMaintenance 78429.276863098
scalar OsgEarthNet.uav[48] utilizationEnergyCharge 277716.12426758
scalar OsgEarthNet.uav[48] utilizationEnergyOverdrawMission 0
scalar OsgEarthNet.uav[48] utilizationEnergyOverdrawMaintenance 0
scalar OsgEarthNet.uav[48] utilizationCountMissions 60
scalar OsgEarthNet.uav[48] utilizationCountManeuversMission 1100
scalar OsgEarthNet.uav[48] utilizationCountManeuversMaintenance 120
scalar OsgEarthNet.uav[48] utilizationCountChargeState 60
scalar OsgEarthNet.uav[48] utilizationCountOverdrawnAfterMission 0
scalar OsgEarthNet.uav[48] utilizationCountIdleState 17
scalar OsgEarthNet.uav[48] utilizationFail 0
scalar OsgEarthNet.uav[48] simulationTime 259200
scalar OsgEarthNet.uav[49] utilizationSecMission 19306.251525803
scalar OsgEarthNet.uav[49] utilizationSecMaintenance 13389.45581193
scalar OsgEarthNet.uav[49] utilizationSecCharge 119272.28466227
scalar OsgEarthNet.uav[49] utilizationSecIdle 107232.007
scalar OsgEarthNet.uav[49] utilizationEnergyMission 95841.20697403
scalar OsgEarthNet.uav[49] utilizationEnergyMaintenance 63335.672744751
scalar OsgEarthNet.uav[49] utilizationEnergyCharge 153535.54345703
scalar OsgEarthNet.uav[49] utilizationEnergyOverdrawMission 0
scalar OsgEarthNet.uav[49] utilizationEnergyOverdrawMaintenance 0
scalar OsgEarthNet.uav[49] utilizationCountMissions 35
scalar OsgEarthNet.uav[49] utilizationCountManeuversMission 705
scalar OsgEarthNet.uav[49] utilizationCountManeuversMaintenance 70
scalar OsgEarthNet.uav[49] utilizationCountChargeState 35
scalar OsgEarthNet.uav[49] utilizationCountOverdrawnAfterMission 0
scalar OsgEarthNet.uav[49] utilizationCountIdleState 35
scalar OsgEarthNet.uav[49] utilizationFail 0
scalar OsgEarthNet.uav[49] simulationTime 259200
scalar OsgEarthNet.uav[50] utilizationSecMission 20490.002441285
scalar OsgEarthNet.uav[50] utilizationSecMaintenance 11503.949627312
scalar OsgEarthNet.uav[50] utilizationSecCharge 117940.77635686
scalar OsgEarthNet.uav[50] utilizationSecIdle 109265.27057454
scalar OsgEarthNet.uav[50] utilizationEnergyMission 99519.384113312
scalar OsgEarthNet.uav[50] utilizationEnergyMaintenance 54985.843784332
scalar OsgEarthNet.uav[50] utilizationEnergyCharge 153134.34838867
scalar OsgEarthNet.uav[50] utilizationEnergyOverdrawMission 0
scalar OsgEarthNet.uav[50] utilizationEnergyOverdrawMaintenance 0
scalar OsgEarthNet.uav[50] utilizationCountMissions 34
scalar OsgEarthNet.uav[50] utilizationCountManeuversMission 608
scalar OsgEarthNet.uav[50] utilizationCountManeuversMaintenance 68
scalar OsgEarthNet.uav[50] utilizationCountChargeState 34
scalar OsgEarthNet.uav[50] utilizationCountOverdrawnAfterMission 0
scalar OsgEarthNet.uav[50] utilizationCountIdleState 34
scalar OsgEarthNet.uav[50] utilizationFail 0
scalar OsgEarthNet.uav[50] simulationTime 259200
scalar OsgEarthNet.uav[51] utilizationSecMission 26213.460145854
scalar OsgEarthNet.uav[51] utilizationSecMaintenance 18521.170214679
scalar OsgEarthNet.uav[51] utilizationSecCharge 172477.01503659
scalar OsgEarthNet.uav[51] utilizationSecIdle 41988.353602879
scalar OsgEarthNet.uav[51] utilizationEnergyMission 130935.86451721
scalar OsgEarthNet.uav[51] utilizationEnergyMaintenance 87701.114215851
scalar OsgEarthNet.uav[51] utilizationEnergyCharge 215215.95825195
scalar OsgEarthNet.uav[51] utilizationEnergyOverdrawMission 0
scalar OsgEarthNet.uav[51] utilizationEnergyOverdrawMaintenance 0
scalar OsgEarthNet.uav[51] utilizationCountMissions 54
scalar OsgEarthNet.uav[51] utilizationCountManeuversMission 952
scalar OsgEarthNet.uav[51] utilizationCountManeuversMaintenance 108
scalar OsgEarthNet.uav[51] utilizationCountChargeState 54
scalar OsgEarthNet.uav[51] utilizationCountOverdrawnAfterMission 0
scalar OsgEarthNet.uav[51] utilizationCountIdleState 54
scalar OsgEarthNet.uav[51] utilizationFail 0
scalar OsgEarthNet.uav[51] simulationTime 259200
scalar OsgEarthNet.uav[52] utilizationSecMission 42307.127522086
scalar OsgEarthNet.uav[52] utilizationSecMaintenance 16964.672749733
scalar OsgEarthNet.uav[52] utilizationSecCharge 197429.30235304
scalar OsgEarthNet.uav[52] utilizationSecIdle 2498.8963751435
scalar OsgEarthNet.uav[52] utilizationEnergyMission 202542.39189148
scalar OsgEarthNet.uav[52] utilizationEnergyMaintenance 78082.229351044
scalar OsgEarthNet.uav[52] utilizationEnergyCharge 278313.3706665
scalar OsgEarthNet.uav[52] utilizationEnergyOverdrawMission 0
scalar OsgEarthNet.uav[52] utilizationEnergyOverdrawMaintenance 0
scalar OsgEarthNet.uav[52] utilizationCountMissions 61
scalar OsgEarthNet.uav[52] utilizationCountManeuversMission 1149
scalar OsgEarthNet.uav[52] utilizationCountManeuversMaintenance 122
scalar OsgEarthNet.uav[52] utilizationCountChargeState 61
scalar OsgEarthNet.uav[52] utilizationCountOverdrawnAfterMission 0
scalar OsgEarthNet.uav[52] utilizationCountIdleState 14
scalar OsgEarthNet.uav[52] utilizationFail 0
scalar OsgEarthNet.uav[52] simulationTime 259200
scalar OsgEarthNet.uav[53] utilizationSecMission 19379.010174875
scalar OsgEarthNet.uav[53] utilizationSecMaintenance 11346.587173189
scalar OsgEarthNet.uav[53] utilizationSecCharge 112000
scalar OsgEarthNet.uav[53] utilizationSecIdle 116474.40165194
scalar OsgEarthNet.uav[53] utilizationEnergyMission 93577.960826874
scalar OsgEarthNet.uav[53] utilizationEnergyMaintenance 53605.036846161
scalar OsgEarthNet.uav[53] utilizationEnergyCharge 144232.85693359
scalar OsgEarthNet.uav[53] utilizationEnergyOverdrawMission 0
scalar OsgEarthNet.uav[53] utilizationEnergyOverdrawMaintenance 0
scalar OsgEarthNet.uav[53] utilizationCountMissions 32
scalar OsgEarthNet.uav[53] utilizationCountManeuversMission 600
scalar OsgEarthNet.uav[53] utilizationCountManeuversMaintenance 64
scalar OsgEarthNet.uav[53] utilizationCountChargeState 32
scalar OsgEarthNet.uav[53] utilizationCountOverdrawnAfterMission 0
scalar OsgEarthNet.uav[53] utilizationCountIdleState 33
scalar OsgEarthNet.uav[53] utilizationFail 0
scalar OsgEarthNet.uav[53] simulationTime 259200
scalar OsgEarthNet.uav[54] utilizationSecMission 40792.25037335
scalar OsgEarthNet.uav[54] utilizationSecMaintenance 17479.680362554
scalar OsgEarthNet.uav[54] utilizationSecCharge 196239.62156501
scalar OsgEarthNet.uav[54] utilizationSecIdle 4688.4466990871
scalar OsgEarthNet.uav[54] utilizationEnergyMission 196917.86877823
scalar OsgEarthNet.uav[54] utilizationEnergyMaintenance 80699.091415405
scalar OsgEarthNet.uav[54] utilizationEnergyCharge 277868.42138672
scalar OsgEarthNet.uav[54] utilizationEnergyOverdrawMission 0
scalar OsgEarthNet.uav[54] utilizationEnergyOverdrawMaintenance 0
scalar OsgEarthNet.uav[54] utilizationCountMissions 60
scalar OsgEarthNet.uav[54] utilizationCountManeuversMission 1200
scalar OsgEarthNet.uav[54] utilizationCountManeuversMaintenance 120
scalar OsgEarthNet.uav[54] utilizationCountChargeState 60
scalar OsgEarthNet.uav[54] utilizationCountOverdrawnAfterMission 0
scalar OsgEarthNet.uav[54] utilizationCountIdleState 10
scalar OsgEarthNet.uav[54] utilizationFail 0
scalar OsgEarthNet.uav[54] simulationTime 259200
scalar OsgEarthNet.uav[55] utilizationSecMission 40709.597268547
scalar OsgEarthNet.uav[55] utilizationSecMaintenance 18018.397731454
scalar OsgEarthNet.uav[55] utilizationSecCharge 196900
scalar OsgEarthNet.uav[55] utilizationSecIdle 3572.004
scalar OsgEarthNet.uav[55] utilizationEnergyMission 197739.74454664
scalar OsgEarthNet.uav[55] utilizationEnergyMaintenance 83473.639110565
scalar OsgEarthNet.uav[55] utilizationEnergyCharge 278446.74194336
scalar OsgEarthNet.uav[55] utilizationEnergyOverdrawMission 0
scalar OsgEarthNet.uav[55] utilizationEnergyOverdrawMaintenance 0
scalar OsgEarthNet.uav[55] utilizationCountMissions 61
scalar OsgEarthNet.uav[55] utilizationCountManeuversMission 1293
scalar OsgEarthNet.uav[55] utilizationCountManeuversMaintenance 123
scalar OsgEarthNet.uav[55] utilizationCountChargeState 61
scalar OsgEarthNet.uav[55] utilizationCountOverdrawnAfterMission 0
scalar OsgEarthNet.uav[55] utilizationCountIdleState 16
scalar OsgEarthNet.uav[55] utilizationFail 0
scalar OsgEarthNet.uav[55] simulationTime 259200
scalar OsgEarthNet.uav[56] utilizationSecMission 20669.377288704
scalar OsgEarthNet.uav[56] utilizationSecMaintenance 12380.361514813
scalar OsgEarthNet.uav[56] utilizationSecCharge 120295.61577414
scalar OsgEarthNet.uav[56] utilizationSecIdle 105854.64442235
scalar OsgEarthNet.uav[56] utilizationEnergyMission 99861.559005737
scalar OsgEarthNet.uav[56] utilizationEnergyMaintenance 58953.272567749
scalar OsgEarthNet.uav[56] utilizationEnergyCharge 155471.5378418
scalar OsgEarthNet.uav[56] utilizationEnergyOverdrawMission 0
scalar OsgEarthNet.uav[56] utilizationEnergyOverdrawMaintenance 0
scalar OsgEarthNet.uav[56] utilizationCountMissions 35
scalar OsgEarthNet.uav[56] utilizationCountManeuversMission 643
scalar OsgEarthNet.uav[56] utilizationCountManeuversMaintenance 70
scalar OsgEarthNet.uav[56] utilizationCountChargeState 35
scalar OsgEarthNet.uav[56] utilizationCountOverdrawnAfterMission 0
scalar OsgEarthNet.uav[56] utilizationCountIdleState 35
scalar OsgEarthNet.uav[56] utilizationFail 0
scalar OsgEarthNet.uav[56] simulationTime 259200
scalar OsgEarthNet.uav[57] utilizationSecMission 28029.536194269
scalar OsgEarthNet.uav[57] utilizationSecMaintenance 17938.715818422
scalar OsgEarthNet.uav[57] utilizationSecCharge 174479.74548059
scalar OsgEarthNet.uav[57] utilizationSecIdle 38752.001506722
scalar OsgEarthNet.uav[57] utilizationEnergyMission 134154.60595322
scalar OsgEarthNet.uav[57] utilizationEnergyMaintenance 84467.516998291
scalar OsgEarthNet.uav[57] utilizationEnergyCharge 216821.71362305
scalar OsgEarthNet.uav[57] utilizationEnergyOverdrawMission 0
scalar OsgEarthNet.uav[57] utilizationEnergyOverdrawMaintenance 0
scalar OsgEarthNet.uav[57] utilizationCountMissions 55
scalar OsgEarthNet.uav[57] utilizationCountManeuversMission 829
scalar OsgEarthNet.uav[57] utilizationCountManeuversMaintenance 110
scalar OsgEarthNet.uav[57] utilizationCountChargeState 55
scalar OsgEarthNet.uav[57] utilizationCountOverdrawnAfterMission 0
scalar OsgEarthNet.uav[57] utilizationCountIdleState 55
scalar OsgEarthNet.uav[57] utilizationFail 0
scalar OsgEarthNet.uav[57] simulationTime 259200
scalar OsgEarthNet.uav[58] utilizationSecMission 42159.059944089
scalar OsgEarthNet.uav[58] utilizationSecMaintenance 16916.55202986
scalar OsgEarthNet.uav[58] utilizationSecCharge 196964.75594539
scalar OsgEarthNet.uav[58] utilizationSecIdle 3159.6310806652
scalar OsgEarthNet.uav[58] utilizationEnergyMission 203765.05901718
scalar OsgEarthNet.uav[58] utilizationEnergyMaintenance 78321.262435913
scalar OsgEarthNet.uav[58] utilizationEnergyCharge 279007.0703125
scalar OsgEarthNet.uav[58] utilizationEnergyOverdrawMission 0
scalar OsgEarthNet.uav[58] utilizationEnergyOverdrawMaintenance 0
scalar OsgEarthNet.uav[58] utilizationCountMissions 60
scalar OsgEarthNet.uav[58] utilizationCountManeuversMission 1160
scalar OsgEarthNet.uav[58] utilizationCountManeuversMaintenance 120
scalar OsgEarthNet.uav[58] utilizationCountChargeState 60
scalar OsgEarthNet.uav[58] utilizationCountOverdrawnAfterMission 0
scalar OsgEarthNet.uav[58] utilizationCountIdleState 9
scalar OsgEarthNet.uav[58] utilizationFail 0
scalar OsgEarthNet.uav[58] simulationTime 259200
scalar OsgEarthNet.uav[59] utilizationSecMission 16697.134717134
scalar OsgEarthNet.uav[59] utilizationSecMaintenance 10407.527934361
scalar OsgEarthNet.uav[59] utilizationSecCharge 101610
scalar OsgEarthNet.uav[59] utilizationSecIdle 130485.33634851
scalar OsgEarthNet.uav[59] utilizationEnergyMission 82292.881000519
scalar OsgEarthNet.uav[59] utilizationEnergyMaintenance 49310.378108978
scalar OsgEarthNet.uav[59] utilizationEnergyCharge 131035.82910156
scalar OsgEarthNet.uav[59] utilizationEnergyOverdrawMission 0
scalar OsgEarthNet.uav[59] utilizationEnergyOverdrawMaintenance 0
scalar OsgEarthNet.uav[59] utilizationCountMissions 29
scalar OsgEarthNet.uav[59] utilizationCountManeuversMission 544
scalar OsgEarthNet.uav[59] utilizationCountManeuversMaintenance 58
scalar OsgEarthNet.uav[59] utilizationCountChargeState 29
scalar OsgEarthNet.uav[59] utilizationCountOverdrawnAfterMission 0
scalar OsgEarthNet.uav[59] utilizationCountIdleState 30
scalar OsgEarthNet.uav[59] utilizationFail 0
scalar OsgEarthNet.uav[59] simulationTime 259200
scalar OsgEarthNet.uav[60] utilizationSecMission 19337.868944793
scalar OsgEarthNet.uav[60] utilizationSecMaintenance 12387.114178637
scalar OsgEarthNet.uav[60] utilizationSecCharge 119630
scalar OsgEarthNet.uav[60] utilizationSecIdle 107845.01587657
scalar OsgEarthNet.uav[60] utilizationEnergyMission 93956.265506744
scalar OsgEarthNet.uav[60] utilizationEnergyMaintenance 58781.870792389
scalar OsgEarthNet.uav[60] utilizationEnergyCharge 154278.48242188
scalar OsgEarthNet.uav[60] utilizationEnergyOverdrawMission 0
scalar OsgEarthNet.uav[60] utilizationEnergyOverdrawMaintenance 0
scalar OsgEarthNet.uav[60] utilizationCountMissions 34
scalar OsgEarthNet.uav[60] utilizationCountManeuversMission 633
scalar OsgEarthNet.uav[60] utilizationCountManeuversMaintenance 68
scalar OsgEarthNet.uav[60] utilizationCountChargeState 34
scalar OsgEarthNet.uav[60] utilizationCountOverdrawnAfterMission 0
scalar OsgEarthNet.uav[60] utilizationCountIdleState 35
scalar OsgEarthNet.uav[60] utilizationFail 0
scalar OsgEarthNet.uav[60] simulationTime 259200
scalar OsgEarthNet.uav[61] utilizationSecMission 21815.821250156
scalar OsgEarthNet.uav[61] utilizationSecMaintenance 14171.339322793
scalar OsgEarthNet.uav[61] utilizationSecCharge 134370
scalar OsgEarthNet.uav[61] utilizationSecIdle 88842.838427051
scalar OsgEarthNet.uav[61] utilizationEnergyMission 105541.13414383
scalar OsgEarthNet.uav[61] utilizationEnergyMaintenance 66856.142841339
scalar OsgEarthNet.uav[61] utilizationEnergyCharge 171767.82788086
scalar OsgEarthNet.uav[61] utilizationEnergyOverdrawMission 0
scalar OsgEarthNet.uav[61] utilizationEnergyOverdrawMaintenance 0
scalar OsgEarthNet.uav[61] utilizationCountMissions 39
scalar OsgEarthNet.uav[61] utilizationCountManeuversMission 728
scalar OsgEarthNet.uav[61] utilizationCountManeuversMaintenance 78
scalar OsgEarthNet.uav[61] utilizationCountChargeState 39
scalar OsgEarthNet.uav[61] utilizationCountOverdrawnAfterMission 0
scalar OsgEarthNet.uav[61] utilizationCountIdleState 40
scalar OsgEarthNet.uav[61] utilizationFail 0
scalar OsgEarthNet.uav[61] simulationTime 259200
scalar OsgEarthNet.uav[62] utilizationSecMission 41668.235455838
scalar OsgEarthNet.uav[62] utilizationSecMaintenance 17591.188498008
scalar OsgEarthNet.uav[62] utilizationSecCharge 198536.07710498
scalar OsgEarthNet.uav[62] utilizationSecIdle 1404.4979411756
scalar OsgEarthNet.uav[62] utilizationEnergyMission 201028.28034592
scalar OsgEarthNet.uav[62] utilizationEnergyMaintenance 80687.173316956
scalar OsgEarthNet.uav[62] utilizationEnergyCharge 279898.30541992
scalar OsgEarthNet.uav[62] utilizationEnergyOverdrawMission 0
scalar OsgEarthNet.uav[62] utilizationEnergyOverdrawMaintenance 0
scalar OsgEarthNet.uav[62] utilizationCountMissions 61
scalar OsgEarthNet.uav[62] utilizationCountManeuversMission 1113
scalar OsgEarthNet.uav[62] utilizationCountManeuversMaintenance 122
scalar OsgEarthNet.uav[62] utilizationCountChargeState 61
scalar OsgEarthNet.uav[62] utilizationCountOverdrawnAfterMission 0
scalar OsgEarthNet.uav[62] utilizationCountIdleState 7
scalar OsgEarthNet.uav[62] utilizationFail 0
scalar OsgEarthNet.uav[62] simulationTime 259200
scalar OsgEarthNet.uav[63] utilizationSecMission 21550.002441285
scalar OsgEarthNet.uav[63] utilizationSecMaintenance 12563.516404407
scalar OsgEarthNet.uav[63] utilizationSecCharge 123284.46615431
scalar OsgEarthNet.uav[63] utilizationSecIdle 101802.014
scalar OsgEarthNet.uav[63] utilizationEnergyMission 103846.3612442
scalar OsgEarthNet.uav[63] utilizationEnergyMaintenance 59683.871322632
scalar OsgEarthNet.uav[63] utilizationEnergyCharge 159260.35577393
scalar OsgEarthNet.uav[63] utilizationEnergyOverdrawMission 0
scalar OsgEarthNet.uav[63] utilizationEnergyOverdrawMaintenance 0
scalar OsgEarthNet.uav[63] utilizationCountMissions 36
scalar OsgEarthNet.uav[63] utilizationCountManeuversMission 661
scalar OsgEarthNet.uav[63] utilizationCountManeuversMaintenance 72
scalar OsgEarthNet.uav[63] utilizationCountChargeState 36
scalar OsgEarthNet.uav[63] utilizationCountOverdrawnAfterMission 0
scalar OsgEarthNet.uav[63] utilizationCountIdleState 36
scalar OsgEarthNet.uav[63] utilizationFail 0
scalar OsgEarthNet.uav[63] simulationTime 259200
scalar OsgEarthNet.uav[64] utilizationSecMission 27240.621488899
scalar OsgEarthNet.uav[64] utilizationSecMaintenance 17801.37568487
scalar OsgEarthNet.uav[64] utilizationSecCharge 171410
scalar OsgEarthNet.uav[64] utilizationSecIdle 42748.00182623
scalar OsgEarthNet.uav[64] utilizationEnergyMission 133038.15093829
scalar OsgEarthNet.uav[64] utilizationEnergyMaintenance 84498.113899231
scalar OsgEarthNet.uav[64] utilizationEnergyCharge 214911.93334961
scalar OsgEarthNet.uav[64] utilizationEnergyOverdrawMission 0
scalar OsgEarthNet.uav[64] utilizationEnergyOverdrawMaintenance 0
scalar OsgEarthNet.uav[64] utilizationCountMissions 52
scalar OsgEarthNet.uav[64] utilizationCountManeuversMission 903
scalar OsgEarthNet.uav[64] utilizationCountManeuversMaintenance 105
scalar OsgEarthNet.uav[64] utilizationCountChargeState 52
scalar OsgEarthNet.uav[64] utilizationCountOverdrawnAfterMission 0
scalar OsgEarthNet.uav[64] utilizationCountIdleState 53
scalar OsgEarthNet.uav[64] utilizationFail 0
scalar OsgEarthNet.uav[64] simulationTime 259200
scalar OsgEarthNet.uav[65] utilizationSecMission 40302.178431375
scalar OsgEarthNet.uav[65] utilizationSecMaintenance 17813.601108993
scalar OsgEarthNet.uav[65] utilizationSecCharge 197082.21445963
scalar OsgEarthNet.uav[65] utilizationSecIdle 4002.005
scalar OsgEarthNet.uav[65] utilizationEnergyMission 196239.81167603
scalar OsgEarthNet.uav[65] utilizationEnergyMaintenance 82514.990394592
scalar OsgEarthNet.uav[65] utilizationEnergyCharge 278535.58569336
scalar OsgEarthNet.uav[65] utilizationEnergyOverdrawMission 0
scalar OsgEarthNet.uav[65] utilizationEnergyOverdrawMaintenance 0
scalar OsgEarthNet.uav[65] utilizationCountMissions 61
scalar OsgEarthNet.uav[65] utilizationCountManeuversMission 1398
scalar OsgEarthNet.uav[65] utilizationCountManeuversMaintenance 122
scalar OsgEarthNet.uav[65] utilizationCountChargeState 61
scalar OsgEarthNet.uav[65] utilizationCountOverdrawnAfterMission 0
scalar OsgEarthNet.uav[65] utilizationCountIdleState 14
scalar OsgEarthNet.uav[65] utilizationFail 0
scalar OsgEarthNet.uav[65] simulationTime 259200
scalar OsgEarthNet.uav[66] utilizationSecMission 21186.360600882
scalar OsgEarthNet.uav[66] utilizationSecMaintenance 15068.4885241
scalar OsgEarthNet.uav[66] utilizationSecCharge 134613.13887502
scalar OsgEarthNet.uav[66] utilizationSecIdle 88332.011
scalar OsgEarthNet.uav[66] utilizationEnergyMission 105000.86650848
scalar OsgEarthNet.uav[66] utilizationEnergyMaintenance 71435.147480011
scalar OsgEarthNet.uav[66] utilizationEnergyCharge 174263.69091797
scalar OsgEarthNet.uav[66] utilizationEnergyOverdrawMission 0
scalar OsgEarthNet.uav[66] utilizationEnergyOverdrawMaintenance 0
scalar OsgEarthNet.uav[66] utilizationCountMissions 39
scalar OsgEarthNet.uav[66] utilizationCountManeuversMission 782
scalar OsgEarthNet.uav[66] utilizationCountManeuversMaintenance 78
scalar OsgEarthNet.uav[66] utilizationCountChargeState 39
scalar OsgEarthNet.uav[66] utilizationCountOverdrawnAfterMission 0
scalar OsgEarthNet.uav[66] utilizationCountIdleState 39
scalar OsgEarthNet.uav[66] utilizationFail 0
scalar OsgEarthNet.uav[66] simulationTime 259200
scalar OsgEarthNet.uav[67] utilizationSecMission 40214.796260683
scalar OsgEarthNet.uav[67] utilizationSecMaintenance 18259.758650626
scalar OsgEarthNet.uav[67] utilizationSecCharge 196280
scalar OsgEarthNet.uav[67] utilizationSecIdle 4445.444088691
scalar OsgEarthNet.uav[67] utilizationEnergyMission 194207.16658786
scalar OsgEarthNet.uav[67] utilizationEnergyMaintenance 83578.739299774
scalar OsgEarthNet.uav[67] utilizationEnergyCharge 278150.10205078
scalar OsgEarthNet.uav[67] utilizationEnergyOverdrawMission 0
scalar OsgEarthNet.uav[67] utilizationEnergyOverdrawMaintenance 0
scalar OsgEarthNet.uav[67] utilizationCountMissions 61
scalar OsgEarthNet.uav[67] utilizationCountManeuversMission 1431
scalar OsgEarthNet.uav[67] utilizationCountManeuversMaintenance 123
scalar OsgEarthNet.uav[67] utilizationCountChargeState 61
scalar OsgEarthNet.uav[67] utilizationCountOverdrawnAfterMission 0
scalar OsgEarthNet.uav[67] utilizationCountIdleState 9
scalar OsgEarthNet.uav[67] utilizationFail 0
scalar OsgEarthNet.uav[67] simulationTime 259200
scalar OsgEarthNet.uav[68] utilizationSecMission 40942.078314092
scalar OsgEarthNet.uav[68] utilizationSecMaintenance 18481.034819028
scalar OsgEarthNet.uav[68] utilizationSecCharge 196393.36053785
scalar OsgEarthNet.uav[68] utilizationSecIdle 3383.5253290289
scalar OsgEarthNet.uav[68] utilizationEnergyMission 195965.33531189
scalar OsgEarthNet.uav[68] utilizationEnergyMaintenance 85204.941371918
scalar OsgEarthNet.uav[68] utilizationEnergyCharge 276549.76123047
scalar OsgEarthNet.uav[68] utilizationEnergyOverdrawMission 0
scalar OsgEarthNet.uav[68] utilizationEnergyOverdrawMaintenance 0
scalar OsgEarthNet.uav[68] utilizationCountMissions 61
scalar OsgEarthNet.uav[68] utilizationCountManeuversMission 1118
scalar OsgEarthNet.uav[68] utilizationCountManeuversMaintenance 122
scalar OsgEarthNet.uav[68] utilizationCountChargeState 61
scalar OsgEarthNet.uav[68] utilizationCountOverdrawnAfterMission 0
scalar OsgEarthNet.uav[68] utilizationCountIdleState 10
scalar OsgEarthNet.uav[68] utilizationFail 0
scalar OsgEarthNet.uav[68] simulationTime 259200
scalar OsgEarthNet.uav[69] utilizationSecMission 21589.268213625
scalar OsgEarthNet.uav[69] utilizationSecMaintenance 13375.919163741
scalar OsgEarthNet.uav[69] utilizationSecCharge 130141.41950769
scalar OsgEarthNet.uav[69] utilizationSecIdle 94093.392114941
scalar OsgEarthNet.uav[69] utilizationEnergyMission 103843.56808853
scalar OsgEarthNet.uav[69] utilizationEnergyMaintenance 63350.537879944
scalar OsgEarthNet.uav[69] utilizationEnergyCharge 168099.92041016
scalar OsgEarthNet.uav[69] utilizationEnergyOverdrawMission 0
scalar OsgEarthNet.uav[69] utilizationEnergyOverdrawMaintenance 0
scalar OsgEarthNet.uav[69] utilizationCountMissions 37
scalar OsgEarthNet.uav[69] utilizationCountManeuversMission 706
scalar OsgEarthNet.uav[69] utilizationCountManeuversMaintenance 74
scalar OsgEarthNet.uav[69] utilizationCountChargeState 37
scalar OsgEarthNet.uav[69] utilizationCountOverdrawnAfterMission 0
scalar OsgEarthNet.uav[69] utilizationCountIdleState 37
scalar OsgEarthNet.uav[69] utilizationFail 0
scalar OsgEarthNet.uav[69] simulationTime 259200
scalar OsgEarthNet.uav[70] utilizationSecMission 18834.290190529
scalar OsgEarthNet.uav[70] utilizationSecMaintenance 12483.700809471
scalar OsgEarthNet.uav[70] utilizationSecCharge 116090
scalar OsgEarthNet.uav[70] utilizationSecIdle 111792.008
scalar OsgEarthNet.uav[70] utilizationEnergyMission 91830.640809088
scalar OsgEarthNet.uav[70] utilizationEnergyMaintenance 59676.167625427
scalar OsgEarthNet.uav[70] utilizationEnergyCharge 149867.34521484
scalar OsgEarthNet.uav[70] utilizationEnergyOverdrawMission 0
scalar OsgEarthNet.uav[70] utilizationEnergyOverdrawMaintenance 0
scalar OsgEarthNet.uav[70] utilizationCountMissions 33
scalar OsgEarthNet.uav[70] utilizationCountManeuversMission 650
scalar OsgEarthNet.uav[70] utilizationCountManeuversMaintenance 67
scalar OsgEarthNet.uav[70] utilizationCountChargeState 33
scalar OsgEarthNet.uav[70] utilizationCountOverdrawnAfterMission 0
scalar OsgEarthNet.uav[70] utilizationCountIdleState 34
scalar OsgEarthNet.uav[70] utilizationFail 0
scalar OsgEarthNet.uav[70] simulationTime 259200
scalar OsgEarthNet.uav[71] utilizationSecMission 26597.042797882
scalar OsgEarthNet.uav[71] utilizationSecMaintenance 17634.162701581
scalar OsgEarthNet.uav[71] utilizationSecCharge 169056.78750054
scalar OsgEarthNet.uav[71] utilizationSecIdle 45912.006
scalar OsgEarthNet.uav[71] utilizationEnergyMission 127996.0207901
scalar OsgEarthNet.uav[71] utilizationEnergyMaintenance 83755.140022278
scalar OsgEarthNet.uav[71] utilizationEnergyCharge 208941.6965332
scalar OsgEarthNet.uav[71] utilizationEnergyOverdrawMission 0
scalar OsgEarthNet.uav[71] utilizationEnergyOverdrawMaintenance 0
scalar OsgEarthNet.uav[71] utilizationCountMissions 54
scalar OsgEarthNet.uav[71] utilizationCountManeuversMission 794
scalar OsgEarthNet.uav[71] utilizationCountManeuversMaintenance 108
scalar OsgEarthNet.uav[71] utilizationCountChargeState 54
scalar OsgEarthNet.uav[71] utilizationCountOverdrawnAfterMission 0
scalar OsgEarthNet.uav[71] utilizationCountIdleState 54
scalar OsgEarthNet.uav[71] utilizationFail 0
scalar OsgEarthNet.uav[71] simulationTime 259200
scalar OsgEarthNet.uav[72] utilizationSecMission 42037.987791839
scalar OsgEarthNet.uav[72] utilizationSecMaintenance 17221.303147854
scalar OsgEarthNet.uav[72] utilizationSecCharge 195680
scalar OsgEarthNet.uav[72] utilizationSecIdle 4260.7080603066
scalar OsgEarthNet.uav[72] utilizationEnergyMission 203204.13908005
scalar OsgEarthNet.uav[72] utilizationEnergyMaintenance 78959.733940612
scalar OsgEarthNet.uav[72] utilizationEnergyCharge 276815.48242188
scalar OsgEarthNet.uav[72] utilizationEnergyOverdrawMission 0
scalar OsgEarthNet.uav[72] utilizationEnergyOverdrawMaintenance 0
scalar OsgEarthNet.uav[72] utilizationCountMissions 61
scalar OsgEarthNet.uav[72] utilizationCountManeuversMission 1215
scalar OsgEarthNet.uav[72] utilizationCountManeuversMaintenance 122
scalar OsgEarthNet.uav[72] utilizationCountChargeState 60
scalar OsgEarthNet.uav[72] utilizationCountOverdrawnAfterMission 0
scalar OsgEarthNet.uav[72] utilizationCountIdleState 10
scalar OsgEarthNet.uav[72] utilizationFail 0
scalar OsgEarthNet.uav[72] simulationTime 259200
scalar OsgEarthNet.uav[73] utilizationSecMission 21684.731798634
scalar OsgEarthNet.uav[73] utilizationSecMaintenance 12209.37047463
scalar OsgEarthNet.uav[73] utilizationSecCharge 125670
scalar OsgEarthNet.uav[73] utilizationSecIdle 99635.896726736
scalar OsgEarthNet.uav[73] utilizationEnergyMission 104532.46493125
scalar OsgEarthNet.uav[73] utilizationEnergyMaintenance 57703.050472259
scalar OsgEarthNet.uav[73] utilizationEnergyCharge 161614.07763672
scalar OsgEarthNet.uav[73] utilizationEnergyOverdrawMission 0
scalar OsgEarthNet.uav[73] utilizationEnergyOverdrawMaintenance 0
scalar OsgEarthNet.uav[73] utilizationCountMissions 36
scalar OsgEarthNet.uav[73] utilizationCountManeuversMission 625
scalar OsgEarthNet.uav[73] utilizationCountManeuversMaintenance 73
scalar OsgEarthNet.uav[73] utilizationCountChargeState 36
scalar OsgEarthNet.uav[73] utilizationCountOverdrawnAfterMission 0
scalar OsgEarthNet.uav[73] utilizationCountIdleState 37
scalar OsgEarthNet.uav[73] utilizationFail 0
scalar OsgEarthNet.uav[73] simulationTime 259200
scalar OsgEarthNet.uav[74] utilizationSecMission 40819.828698028
scalar OsgEarthNet.uav[74] utilizationSecMaintenance 17899.846251237
scalar OsgEarthNet.uav[74] utilizationSecCharge 196694.88096204
scalar OsgEarthNet.uav[74] utilizationSecIdle 3785.4430886909
scalar OsgEarthNet.uav[74] utilizationEnergyMission 196180.09843063
scalar OsgEarthNet.uav[74] utilizationEnergyMaintenance 82334.619380951
scalar OsgEarthNet.uav[74] utilizationEnergyCharge 278287.84716797
scalar OsgEarthNet.uav[74] utilizationEnergyOverdrawMission 0
scalar OsgEarthNet.uav[74] utilizationEnergyOverdrawMaintenance 0
scalar OsgEarthNet.uav[74] utilizationCountMissions 61
scalar OsgEarthNet.uav[74] utilizationCountManeuversMission 1206
scalar OsgEarthNet.uav[74] utilizationCountManeuversMaintenance 122
scalar OsgEarthNet.uav[74] utilizationCountChargeState 61
scalar OsgEarthNet.uav[74] utilizationCountOverdrawnAfterMission 0
scalar OsgEarthNet.uav[74] utilizationCountIdleState 9
scalar OsgEarthNet.uav[74] utilizationFail 0
scalar OsgEarthNet.uav[74] simulationTime 259200
scalar OsgEarthNet.uav[75] utilizationSecMission 40563.467421573
scalar OsgEarthNet.uav[75] utilizationSecMaintenance 18031.297759355
scalar OsgEarthNet.uav[75] utilizationSecCharge 198726.01420516
scalar OsgEarthNet.uav[75] utilizationSecIdle 1879.2196139157
scalar OsgEarthNet.uav[75] utilizationEnergyMission 196792.04351425
scalar OsgEarthNet.uav[75] utilizationEnergyMaintenance 83029.638729095
scalar OsgEarthNet.uav[75] utilizationEnergyCharge 280858.72460938
scalar OsgEarthNet.uav[75] utilizationEnergyOverdrawMission 0
scalar OsgEarthNet.uav[75] utilizationEnergyOverdrawMaintenance 0
scalar OsgEarthNet.uav[75] utilizationCountMissions 61
scalar OsgEarthNet.uav[75] utilizationCountManeuversMission 1249
scalar OsgEarthNet.uav[75] utilizationCountManeuversMaintenance 122
scalar OsgEarthNet.uav[75] utilizationCountChargeState 61
scalar OsgEarthNet.uav[75] utilizationCountOverdrawnAfterMission 0
scalar OsgEarthNet.uav[75] utilizationCountIdleState 12
scalar OsgEarthNet.uav[75] utilizationFail 0
scalar OsgEarthNet.uav[75] simulationTime 259200
scalar OsgEarthNet.uav[76] utilizationSecMission 20778.494097373
scalar OsgEarthNet.uav[76] utilizationSecMaintenance 13027.763436165
scalar OsgEarthNet.uav[76] utilizationSecCharge 125807.21858753
scalar OsgEarthNet.uav[76] utilizationSecIdle 99586.522878931
scalar OsgEarthNet.uav[76] utilizationEnergyMission 99487.115753174
scalar OsgEarthNet.uav[76] utilizationEnergyMaintenance 61940.067928314
scalar OsgEarthNet.uav[76] utilizationEnergyCharge 163067.68066406
scalar OsgEarthNet.uav[76] utilizationEnergyOverdrawMission 0
scalar OsgEarthNet.uav[76] utilizationEnergyOverdrawMaintenance 0
scalar OsgEarthNet.uav[76] utilizationCountMissions 36
scalar OsgEarthNet.uav[76] utilizationCountManeuversMission 679
scalar OsgEarthNet.uav[76] utilizationCountManeuversMaintenance 72
scalar OsgEarthNet.uav[76] utilizationCountChargeState 36
scalar OsgEarthNet.uav[76] utilizationCountOverdrawnAfterMission 0
scalar OsgEarthNet.uav[76] utilizationCountIdleState 36
scalar OsgEarthNet.uav[76] utilizationFail 0
scalar OsgEarthNet.uav[76] simulationTime 259200
scalar OsgEarthNet.uav[77] utilizationSecMission 26152.758075482
scalar OsgEarthNet.uav[77] utilizationSecMaintenance 18557.357862803
scalar OsgEarthNet.uav[77] utilizationSecCharge 174757.88106172
scalar OsgEarthNet.uav[77] utilizationSecIdle 39732.002
scalar OsgEarthNet.uav[77] utilizationEnergyMission 128423.48802185
scalar OsgEarthNet.uav[77] utilizationEnergyMaintenance 88030.245227814
scalar OsgEarthNet.uav[77] utilizationEnergyCharge 216278.8059082
scalar OsgEarthNet.uav[77] utilizationEnergyOverdrawMission 0
scalar OsgEarthNet.uav[77] utilizationEnergyOverdrawMaintenance 0
scalar OsgEarthNet.uav[77] utilizationCountMissions 55
scalar OsgEarthNet.uav[77] utilizationCountManeuversMission 897
scalar OsgEarthNet.uav[77] utilizationCountManeuversMaintenance 110
scalar OsgEarthNet.uav[77] utilizationCountChargeState 55
scalar OsgEarthNet.uav[77] utilizationCountOverdrawnAfterMission 0
scalar OsgEarthNet.uav[77] utilizationCountIdleState 55
scalar OsgEarthNet.uav[77] utilizationFail 0
scalar OsgEarthNet.uav[77] simulationTime 259200
scalar OsgEarthNet.uav[78] utilizationSecMission 41284.156628134
scalar OsgEarthNet.uav[78] utilizationSecMaintenance 17663.840371866
scalar OsgEarthNet.uav[78] utilizationSecCharge 197330
scalar OsgEarthNet.uav[78] utilizationSecIdle 2922.002
scalar OsgEarthNet.uav[78] utilizationEnergyMission 201838.8460454
scalar OsgEarthNet.uav[78] utilizationEnergyMaintenance 81037.7016716
scalar OsgEarthNet.uav[78] utilizationEnergyCharge 278570.03710938
scalar OsgEarthNet.uav[78] utilizationEnergyOverdrawMission 0
scalar OsgEarthNet.uav[78] utilizationEnergyOverdrawMaintenance 0
scalar OsgEarthNet.uav[78] utilizationCountMissions 61
scalar OsgEarthNet.uav[78] utilizationCountManeuversMission 1313
scalar OsgEarthNet.uav[78] utilizationCountManeuversMaintenance 123
scalar OsgEarthNet.uav[78] utilizationCountChargeState 61
scalar OsgEarthNet.uav[78] utilizationCountOverdrawnAfterMission 0
scalar OsgEarthNet.uav[78] utilizationCountIdleState 11
scalar OsgEarthNet.uav[78] utilizationFail 0
scalar OsgEarthNet.uav[78] simulationTime 259200
scalar OsgEarthNet.uav[79] utilizationSecMission 20718.385022294
scalar OsgEarthNet.uav[79] utilizationSecMaintenance 13293.160954789
scalar OsgEarthNet.uav[79] utilizationSecCharge 126660
scalar OsgEarthNet.uav[79] utilizationSecIdle 98528.453022916
scalar OsgEarthNet.uav[79] utilizationEnergyMission 100680.9213295
scalar OsgEarthNet.uav[79] utilizationEnergyMaintenance 62962.596206665
scalar OsgEarthNet.uav[79] utilizationEnergyCharge 163552.95654297
scalar OsgEarthNet.uav[79] utilizationEnergyOverdrawMission 0
scalar OsgEarthNet.uav[79] utilizationEnergyOverdrawMaintenance 0
scalar OsgEarthNet.uav[79] utilizationCountMissions 36
scalar OsgEarthNet.uav[79] utilizationCountManeuversMission 693
scalar OsgEarthNet.uav[79] utilizationCountManeuversMaintenance 72
scalar OsgEarthNet.uav[79] utilizationCountChargeState 36
scalar OsgEarthNet.uav[79] utilizationCountOverdrawnAfterMission 0
scalar OsgEarthNet.uav[79] utilizationCountIdleState 37
scalar OsgEarthNet.uav[79] utilizationFail 0
scalar OsgEarthNet.uav[79] simulationTime 259200
scalar OsgEarthNet.cs[0] usedPower 3997527.2852834
scalar OsgEarthNet.cs[0] chargedPower 3997527.2852834
scalar OsgEarthNet.cs[0] chargedMobileNodes 875
scalar OsgEarthNet.cs[0] reservations 889
scalar OsgEarthNet.cs[1] usedPower 4141747.9770251
scalar OsgEarthNet.cs[1] chargedPower 4141747.9770251
scalar OsgEarthNet.cs[1] chargedMobileNodes 1034
scalar OsgEarthNet.cs[1] reservations 1047
scalar OsgEarthNet.cs[2] usedPower 8683673.6078747
scalar OsgEarthNet.cs[2] chargedPower 8683673.6078747
scalar OsgEarthNet.cs[2] chargedMobileNodes 321
scalar OsgEarthNet.cs[2] reservations 1900

