version 2
run Szenario_Hotel_Gabelbach-232-20180712-07:05:45-15744
attr configname Szenario_Hotel_Gabelbach
attr datetime 20180712-07:05:45
attr experiment Szenario_Hotel_Gabelbach
attr inifile omnetpp.ini
attr iterationvars "$replM=2, $biWeight=0.35, $replSearchM=1, $numUAVs=150"
attr iterationvarsf replM=2,biWeight=0.35,replSearchM=1,numUAVs=150-
attr measurement "$replM=2, $biWeight=0.35, $replSearchM=1, $numUAVs=150"
attr network OsgEarthNet
attr processid 15744
attr repetition 4
attr replication #4
attr resultdir results
attr runnumber 232
attr seedset 232
itervar biWeight 0.35
itervar numUAVs 150
itervar replM 2
itervar replSearchM 1
param *.osgEarthScene.scene "\"Szenario_Hotel_Gabelbach.earth\""
param *.playgroundLatitude 50.6830269
param *.playgroundLongitude 10.8538055
param *.playgroundWidth 3500m
param *.playgroundHeight 3500m
param *.cs[0].posX 3537m
param *.cs[0].posY 965m
param *.cs[0].posZ 538m
param *.cs[1].posX 312m
param *.cs[1].posY 1262m
param *.cs[1].posZ 539m
param *.cs[2].posX 2185m
param *.cs[2].posY 3026m
param *.cs[2].posZ 777m
param *.cs[3].posX 10m
param *.cs[3].posY 2200m
param *.cs[3].posZ 560m
param *.cs[4].posX 750m
param *.cs[4].posY 200m
param *.cs[4].posZ 540m
param *.cs[5].posX 2450m
param *.cs[5].posY 180m
param *.cs[5].posZ 524m
param *.cs[6].posX 3140m
param *.cs[6].posY 1790m
param *.cs[6].posZ 606m
param *.numCSs 3
param *.uav[*].replacementMethod 2
param *.uav[*].weightedSumWeight 0.35
param *.missionControl.replacementSearchMethod 1
param *.numUAVs 150
param *.numCSs 3
param *.numUAVs 100
param *.*.timeStep 10s
param *.uav[*].commandPreviewCommandCount 20
param *.missionControl.missionFiles "\"missions\\\\Szenario_WB_Hotel_Gabelbach_Mission_Hotel.waypoints,missions\\\\Szenario_WB_Hotel_Gabelbach_Mission_Kickelhahn.waypoints,missions\\\\Szenario_WB_Hotel_Gabelbach_Mission_Ilmenau_Sportplatz.waypoints,missions\\\\Szenario_WB_Hotel_Gabelbach_Mission_Manebach_Mitte.waypoints,missions\\\\Szenario_WB_Hotel_Gabelbach_Mission_Manebach_Sued.waypoints,missions\\\\Szenario_WB_Hotel_Gabelbach_Hover_HoheSchlaufe.waypoints,missions\\\\Szenario_WB_Hotel_Gabelbach_Hover_Kickelhahn.waypoints,missions\\\\Szenario_WB_Hotel_Gabelbach_Hover_Gabelbachskopf.waypoints,missions\\\\Szenario_WB_Hotel_Gabelbach_Hover_Dachskopf.waypoints\""
param *.uav[0].startX 3537m
param *.uav[0].startY 965m
param *.uav[0].startZ 539m
param *.uav[1].startX 312m
param *.uav[1].startY 1262m
param *.uav[1].startZ 540m
param *.uav[2].startX 2185m
param *.uav[2].startY 3026m
param *.uav[2].startZ 778m
param *.uav[3].startX 3537m
param *.uav[3].startY 965m
param *.uav[3].startZ 539m
param *.uav[4].startX 312m
param *.uav[4].startY 1262m
param *.uav[4].startZ 540m
param *.uav[5].startX 2185m
param *.uav[5].startY 3026m
param *.uav[5].startZ 778m
param *.uav[6].startX 3537m
param *.uav[6].startY 965m
param *.uav[6].startZ 539m
param *.uav[7].startX 312m
param *.uav[7].startY 1262m
param *.uav[7].startZ 540m
param *.uav[8].startX 2185m
param *.uav[8].startY 3026m
param *.uav[8].startZ 778m
param *.uav[9].startX 3537m
param *.uav[9].startY 965m
param *.uav[9].startZ 539m
param *.uav[10].startX 3537m
param *.uav[10].startY 965m
param *.uav[10].startZ 539m
param *.uav[11].startX 312m
param *.uav[11].startY 1262m
param *.uav[11].startZ 540m
param *.uav[12].startX 2185m
param *.uav[12].startY 3026m
param *.uav[12].startZ 778m
param *.uav[13].startX 3537m
param *.uav[13].startY 965m
param *.uav[13].startZ 539m
param *.uav[14].startX 312m
param *.uav[14].startY 1262m
param *.uav[14].startZ 540m
param *.uav[15].startX 2185m
param *.uav[15].startY 3026m
param *.uav[15].startZ 778m
param *.uav[16].startX 3537m
param *.uav[16].startY 965m
param *.uav[16].startZ 539m
param *.uav[17].startX 312m
param *.uav[17].startY 1262m
param *.uav[17].startZ 540m
param *.uav[18].startX 2185m
param *.uav[18].startY 3026m
param *.uav[18].startZ 778m
param *.uav[19].startX 3537m
param *.uav[19].startY 965m
param *.uav[19].startZ 539m
param *.uav[20].startX 3537m
param *.uav[20].startY 965m
param *.uav[20].startZ 539m
param *.uav[21].startX 312m
param *.uav[21].startY 1262m
param *.uav[21].startZ 540m
param *.uav[22].startX 2185m
param *.uav[22].startY 3026m
param *.uav[22].startZ 778m
param *.uav[23].startX 3537m
param *.uav[23].startY 965m
param *.uav[23].startZ 539m
param *.uav[24].startX 312m
param *.uav[24].startY 1262m
param *.uav[24].startZ 540m
param *.uav[25].startX 2185m
param *.uav[25].startY 3026m
param *.uav[25].startZ 778m
param *.uav[26].startX 3537m
param *.uav[26].startY 965m
param *.uav[26].startZ 539m
param *.uav[27].startX 312m
param *.uav[27].startY 1262m
param *.uav[27].startZ 540m
param *.uav[28].startX 2185m
param *.uav[28].startY 3026m
param *.uav[28].startZ 778m
param *.uav[29].startX 3537m
param *.uav[29].startY 965m
param *.uav[29].startZ 539m
param *.uav[30].startX 3537m
param *.uav[30].startY 965m
param *.uav[30].startZ 539m
param *.uav[31].startX 312m
param *.uav[31].startY 1262m
param *.uav[31].startZ 540m
param *.uav[32].startX 2185m
param *.uav[32].startY 3026m
param *.uav[32].startZ 778m
param *.uav[33].startX 3537m
param *.uav[33].startY 965m
param *.uav[33].startZ 539m
param *.uav[34].startX 312m
param *.uav[34].startY 1262m
param *.uav[34].startZ 540m
param *.uav[35].startX 2185m
param *.uav[35].startY 3026m
param *.uav[35].startZ 778m
param *.uav[36].startX 3537m
param *.uav[36].startY 965m
param *.uav[36].startZ 539m
param *.uav[37].startX 312m
param *.uav[37].startY 1262m
param *.uav[37].startZ 540m
param *.uav[38].startX 2185m
param *.uav[38].startY 3026m
param *.uav[38].startZ 778m
param *.uav[39].startX 3537m
param *.uav[39].startY 965m
param *.uav[39].startZ 539m
param *.uav[40].startX 3537m
param *.uav[40].startY 965m
param *.uav[40].startZ 539m
param *.uav[41].startX 312m
param *.uav[41].startY 1262m
param *.uav[41].startZ 540m
param *.uav[42].startX 2185m
param *.uav[42].startY 3026m
param *.uav[42].startZ 778m
param *.uav[43].startX 3537m
param *.uav[43].startY 965m
param *.uav[43].startZ 539m
param *.uav[44].startX 312m
param *.uav[44].startY 1262m
param *.uav[44].startZ 540m
param *.uav[45].startX 2185m
param *.uav[45].startY 3026m
param *.uav[45].startZ 778m
param *.uav[46].startX 3537m
param *.uav[46].startY 965m
param *.uav[46].startZ 539m
param *.uav[47].startX 312m
param *.uav[47].startY 1262m
param *.uav[47].startZ 540m
param *.uav[48].startX 2185m
param *.uav[48].startY 3026m
param *.uav[48].startZ 778m
param *.uav[49].startX 3537m
param *.uav[49].startY 965m
param *.uav[49].startZ 539m
param *.uav[50].startX 3537m
param *.uav[50].startY 965m
param *.uav[50].startZ 539m
param *.uav[51].startX 312m
param *.uav[51].startY 1262m
param *.uav[51].startZ 540m
param *.uav[52].startX 2185m
param *.uav[52].startY 3026m
param *.uav[52].startZ 778m
param *.uav[53].startX 3537m
param *.uav[53].startY 965m
param *.uav[53].startZ 539m
param *.uav[54].startX 312m
param *.uav[54].startY 1262m
param *.uav[54].startZ 540m
param *.uav[55].startX 2185m
param *.uav[55].startY 3026m
param *.uav[55].startZ 778m
param *.uav[56].startX 3537m
param *.uav[56].startY 965m
param *.uav[56].startZ 539m
param *.uav[57].startX 312m
param *.uav[57].startY 1262m
param *.uav[57].startZ 540m
param *.uav[58].startX 2185m
param *.uav[58].startY 3026m
param *.uav[58].startZ 778m
param *.uav[59].startX 3537m
param *.uav[59].startY 965m
param *.uav[59].startZ 539m
param *.uav[60].startX 3537m
param *.uav[60].startY 965m
param *.uav[60].startZ 539m
param *.uav[61].startX 312m
param *.uav[61].startY 1262m
param *.uav[61].startZ 540m
param *.uav[62].startX 2185m
param *.uav[62].startY 3026m
param *.uav[62].startZ 778m
param *.uav[63].startX 3537m
param *.uav[63].startY 965m
param *.uav[63].startZ 539m
param *.uav[64].startX 312m
param *.uav[64].startY 1262m
param *.uav[64].startZ 540m
param *.uav[65].startX 2185m
param *.uav[65].startY 3026m
param *.uav[65].startZ 778m
param *.uav[66].startX 3537m
param *.uav[66].startY 965m
param *.uav[66].startZ 539m
param *.uav[67].startX 312m
param *.uav[67].startY 1262m
param *.uav[67].startZ 540m
param *.uav[68].startX 2185m
param *.uav[68].startY 3026m
param *.uav[68].startZ 778m
param *.uav[69].startX 3537m
param *.uav[69].startY 965m
param *.uav[69].startZ 539m
param *.uav[70].startX 3537m
param *.uav[70].startY 965m
param *.uav[70].startZ 539m
param *.uav[71].startX 312m
param *.uav[71].startY 1262m
param *.uav[71].startZ 540m
param *.uav[72].startX 2185m
param *.uav[72].startY 3026m
param *.uav[72].startZ 778m
param *.uav[73].startX 3537m
param *.uav[73].startY 965m
param *.uav[73].startZ 539m
param *.uav[74].startX 312m
param *.uav[74].startY 1262m
param *.uav[74].startZ 540m
param *.uav[75].startX 2185m
param *.uav[75].startY 3026m
param *.uav[75].startZ 778m
param *.uav[76].startX 3537m
param *.uav[76].startY 965m
param *.uav[76].startZ 539m
param *.uav[77].startX 312m
param *.uav[77].startY 1262m
param *.uav[77].startZ 540m
param *.uav[78].startX 2185m
param *.uav[78].startY 3026m
param *.uav[78].startZ 778m
param *.uav[79].startX 3537m
param *.uav[79].startY 965m
param *.uav[79].startZ 539m
param *.uav[80].startX 3537m
param *.uav[80].startY 965m
param *.uav[80].startZ 539m
param *.uav[81].startX 312m
param *.uav[81].startY 1262m
param *.uav[81].startZ 540m
param *.uav[82].startX 2185m
param *.uav[82].startY 3026m
param *.uav[82].startZ 778m
param *.uav[83].startX 3537m
param *.uav[83].startY 965m
param *.uav[83].startZ 539m
param *.uav[84].startX 312m
param *.uav[84].startY 1262m
param *.uav[84].startZ 540m
param *.uav[85].startX 2185m
param *.uav[85].startY 3026m
param *.uav[85].startZ 778m
param *.uav[86].startX 3537m
param *.uav[86].startY 965m
param *.uav[86].startZ 539m
param *.uav[87].startX 312m
param *.uav[87].startY 1262m
param *.uav[87].startZ 540m
param *.uav[88].startX 2185m
param *.uav[88].startY 3026m
param *.uav[88].startZ 778m
param *.uav[89].startX 3537m
param *.uav[89].startY 965m
param *.uav[89].startZ 539m
param *.uav[90].startX 3537m
param *.uav[90].startY 965m
param *.uav[90].startZ 539m
param *.uav[91].startX 312m
param *.uav[91].startY 1262m
param *.uav[91].startZ 540m
param *.uav[92].startX 2185m
param *.uav[92].startY 3026m
param *.uav[92].startZ 778m
param *.uav[93].startX 3537m
param *.uav[93].startY 965m
param *.uav[93].startZ 539m
param *.uav[94].startX 312m
param *.uav[94].startY 1262m
param *.uav[94].startZ 540m
param *.uav[95].startX 2185m
param *.uav[95].startY 3026m
param *.uav[95].startZ 778m
param *.uav[96].startX 3537m
param *.uav[96].startY 965m
param *.uav[96].startZ 539m
param *.uav[97].startX 312m
param *.uav[97].startY 1262m
param *.uav[97].startZ 540m
param *.uav[98].startX 2185m
param *.uav[98].startY 3026m
param *.uav[98].startZ 778m
param *.uav[99].startX 3537m
param *.uav[99].startY 965m
param *.uav[99].startZ 539m
param *.osgEarthScene.scene "\"boston.earth\""
param *.playgroundLatitude 42.3558
param *.playgroundLongitude -71.0677
param *.playgroundWidth 400m
param *.playgroundHeight 200m
param *.channelController.connectionColor "\"#0000FF40\""
param *.channelController.showConnections false
param *.uav[*].modelURL "\"quadrocopter.small.obj.15.scale.0,0,90.rot\""
param *.uav[*].labelColor "\"#FF7C00CC\""
param *.uav[*].label2Color "\"#FF7C00EE\""
param *.uav[*].batteryCapacity 5200mAh
param *.uav[*].batteryRemaining uav[index].batteryCapacity
param *.uav[*].predictionQuantile 0.95
param *.uav[*].replacementMethod 2
param *.uav[*].weightedSumWeight 0.5
param *.cs[*].modelURL "\"chargingstation_v1.osgt.2.scale.0,0,0.rot.0,0,-15e-1.trans\""
param *.cs[*].spotsWaiting 999
param *.cs[*].spotsCharging 999
param *.cs[*].chargeEffectivenessPercentage 100
param *.cs[*].nonLinearPhaseStartPercentage 85
param *.cs[*].chargeCurrent 6.0A
param *.cs[*].prioritizeFastCharge true
param *.missionControl.replacementSearchMethod 0
param *.*.timeStep 9s

scalar OsgEarthNet.uav[0] utilizationSecMission 8489.1121844716
scalar OsgEarthNet.uav[0] utilizationSecMaintenance 6327.5517554393
scalar OsgEarthNet.uav[0] utilizationSecCharge 56110
scalar OsgEarthNet.uav[0] utilizationSecIdle 188273.33506009
scalar OsgEarthNet.uav[0] utilizationEnergyMission 42320.708889008
scalar OsgEarthNet.uav[0] utilizationEnergyMaintenance 30103.587249756
scalar OsgEarthNet.uav[0] utilizationEnergyCharge 72216.325683594
scalar OsgEarthNet.uav[0] utilizationEnergyOverdrawMission 0
scalar OsgEarthNet.uav[0] utilizationEnergyOverdrawMaintenance 0
scalar OsgEarthNet.uav[0] utilizationCountMissions 16
scalar OsgEarthNet.uav[0] utilizationCountManeuversMission 339
scalar OsgEarthNet.uav[0] utilizationCountManeuversMaintenance 31
scalar OsgEarthNet.uav[0] utilizationCountChargeState 16
scalar OsgEarthNet.uav[0] utilizationCountOverdrawnAfterMission 0
scalar OsgEarthNet.uav[0] utilizationCountIdleState 17
scalar OsgEarthNet.uav[0] utilizationFail 0
scalar OsgEarthNet.uav[0] simulationTime 259200
scalar OsgEarthNet.uav[1] utilizationSecMission 540
scalar OsgEarthNet.uav[1] utilizationSecMaintenance 395.21104267299
scalar OsgEarthNet.uav[1] utilizationSecCharge 3480
scalar OsgEarthNet.uav[1] utilizationSecIdle 254784.78795733
scalar OsgEarthNet.uav[1] utilizationEnergyMission 2636.5921173096
scalar OsgEarthNet.uav[1] utilizationEnergyMaintenance 1831.5075798035
scalar OsgEarthNet.uav[1] utilizationEnergyCharge 4444.0439453125
scalar OsgEarthNet.uav[1] utilizationEnergyOverdrawMission 0
scalar OsgEarthNet.uav[1] utilizationEnergyOverdrawMaintenance 0
scalar OsgEarthNet.uav[1] utilizationCountMissions 1
scalar OsgEarthNet.uav[1] utilizationCountManeuversMission 27
scalar OsgEarthNet.uav[1] utilizationCountManeuversMaintenance 2
scalar OsgEarthNet.uav[1] utilizationCountChargeState 1
scalar OsgEarthNet.uav[1] utilizationCountOverdrawnAfterMission 0
scalar OsgEarthNet.uav[1] utilizationCountIdleState 2
scalar OsgEarthNet.uav[1] utilizationFail 0
scalar OsgEarthNet.uav[1] simulationTime 259200
scalar OsgEarthNet.uav[2] utilizationSecMission 40363.873511707
scalar OsgEarthNet.uav[2] utilizationSecMaintenance 17038.172569462
scalar OsgEarthNet.uav[2] utilizationSecCharge 194855.94691883
scalar OsgEarthNet.uav[2] utilizationSecIdle 6942.006
scalar OsgEarthNet.uav[2] utilizationEnergyMission 194819.49230957
scalar OsgEarthNet.uav[2] utilizationEnergyMaintenance 77712.582065582
scalar OsgEarthNet.uav[2] utilizationEnergyCharge 268368.14245605
scalar OsgEarthNet.uav[2] utilizationEnergyOverdrawMission 0
scalar OsgEarthNet.uav[2] utilizationEnergyOverdrawMaintenance 0
scalar OsgEarthNet.uav[2] utilizationCountMissions 59
scalar OsgEarthNet.uav[2] utilizationCountManeuversMission 1195
scalar OsgEarthNet.uav[2] utilizationCountManeuversMaintenance 118
scalar OsgEarthNet.uav[2] utilizationCountChargeState 59
scalar OsgEarthNet.uav[2] utilizationCountOverdrawnAfterMission 0
scalar OsgEarthNet.uav[2] utilizationCountIdleState 22
scalar OsgEarthNet.uav[2] utilizationFail 0
scalar OsgEarthNet.uav[2] simulationTime 259200
scalar OsgEarthNet.uav[3] utilizationSecMission 5521.2503051606
scalar OsgEarthNet.uav[3] utilizationSecMaintenance 4422.9878558799
scalar OsgEarthNet.uav[3] utilizationSecCharge 38290
scalar OsgEarthNet.uav[3] utilizationSecIdle 210965.76083896
scalar OsgEarthNet.uav[3] utilizationEnergyMission 27290.385368347
scalar OsgEarthNet.uav[3] utilizationEnergyMaintenance 21148.775039673
scalar OsgEarthNet.uav[3] utilizationEnergyCharge 49163.926757812
scalar OsgEarthNet.uav[3] utilizationEnergyOverdrawMission 0
scalar OsgEarthNet.uav[3] utilizationEnergyOverdrawMaintenance 0
scalar OsgEarthNet.uav[3] utilizationCountMissions 11
scalar OsgEarthNet.uav[3] utilizationCountManeuversMission 224
scalar OsgEarthNet.uav[3] utilizationCountManeuversMaintenance 22
scalar OsgEarthNet.uav[3] utilizationCountChargeState 11
scalar OsgEarthNet.uav[3] utilizationCountOverdrawnAfterMission 0
scalar OsgEarthNet.uav[3] utilizationCountIdleState 12
scalar OsgEarthNet.uav[3] utilizationFail 0
scalar OsgEarthNet.uav[3] simulationTime 259200
scalar OsgEarthNet.uav[4] utilizationSecMission 682.94783150361
scalar OsgEarthNet.uav[4] utilizationSecMaintenance 298.15269315943
scalar OsgEarthNet.uav[4] utilizationSecCharge 3630
scalar OsgEarthNet.uav[4] utilizationSecIdle 254588.89847534
scalar OsgEarthNet.uav[4] utilizationEnergyMission 3279.5479736328
scalar OsgEarthNet.uav[4] utilizationEnergyMaintenance 1367.2334518433
scalar OsgEarthNet.uav[4] utilizationEnergyCharge 4646.779296875
scalar OsgEarthNet.uav[4] utilizationEnergyOverdrawMission 0
scalar OsgEarthNet.uav[4] utilizationEnergyOverdrawMaintenance 0
scalar OsgEarthNet.uav[4] utilizationCountMissions 1
scalar OsgEarthNet.uav[4] utilizationCountManeuversMission 12
scalar OsgEarthNet.uav[4] utilizationCountManeuversMaintenance 2
scalar OsgEarthNet.uav[4] utilizationCountChargeState 1
scalar OsgEarthNet.uav[4] utilizationCountOverdrawnAfterMission 0
scalar OsgEarthNet.uav[4] utilizationCountIdleState 2
scalar OsgEarthNet.uav[4] utilizationFail 0
scalar OsgEarthNet.uav[4] simulationTime 259200
scalar OsgEarthNet.uav[5] utilizationSecMission 39673.977444462
scalar OsgEarthNet.uav[5] utilizationSecMaintenance 17614.021555538
scalar OsgEarthNet.uav[5] utilizationSecCharge 198740
scalar OsgEarthNet.uav[5] utilizationSecIdle 3172
scalar OsgEarthNet.uav[5] utilizationEnergyMission 191119.88037221
scalar OsgEarthNet.uav[5] utilizationEnergyMaintenance 81416.283176422
scalar OsgEarthNet.uav[5] utilizationEnergyCharge 272452.18896484
scalar OsgEarthNet.uav[5] utilizationEnergyOverdrawMission 0
scalar OsgEarthNet.uav[5] utilizationEnergyOverdrawMaintenance 0
scalar OsgEarthNet.uav[5] utilizationCountMissions 59
scalar OsgEarthNet.uav[5] utilizationCountManeuversMission 1273
scalar OsgEarthNet.uav[5] utilizationCountManeuversMaintenance 119
scalar OsgEarthNet.uav[5] utilizationCountChargeState 59
scalar OsgEarthNet.uav[5] utilizationCountOverdrawnAfterMission 0
scalar OsgEarthNet.uav[5] utilizationCountIdleState 19
scalar OsgEarthNet.uav[5] utilizationFail 0
scalar OsgEarthNet.uav[5] simulationTime 259200
scalar OsgEarthNet.uav[6] utilizationSecMission 7563.1257629014
scalar OsgEarthNet.uav[6] utilizationSecMaintenance 4555.1147594394
scalar OsgEarthNet.uav[6] utilizationSecCharge 43060.24481671
scalar OsgEarthNet.uav[6] utilizationSecIdle 204021.51366095
scalar OsgEarthNet.uav[6] utilizationEnergyMission 37453.20993042
scalar OsgEarthNet.uav[6] utilizationEnergyMaintenance 21955.848365784
scalar OsgEarthNet.uav[6] utilizationEnergyCharge 55951.580810547
scalar OsgEarthNet.uav[6] utilizationEnergyOverdrawMission 0
scalar OsgEarthNet.uav[6] utilizationEnergyOverdrawMaintenance 0
scalar OsgEarthNet.uav[6] utilizationCountMissions 13
scalar OsgEarthNet.uav[6] utilizationCountManeuversMission 248
scalar OsgEarthNet.uav[6] utilizationCountManeuversMaintenance 26
scalar OsgEarthNet.uav[6] utilizationCountChargeState 13
scalar OsgEarthNet.uav[6] utilizationCountOverdrawnAfterMission 0
scalar OsgEarthNet.uav[6] utilizationCountIdleState 13
scalar OsgEarthNet.uav[6] utilizationFail 0
scalar OsgEarthNet.uav[6] simulationTime 259200
scalar OsgEarthNet.uav[7] utilizationSecMission 1396.3500981245
scalar OsgEarthNet.uav[7] utilizationSecMaintenance 966.53076281999
scalar OsgEarthNet.uav[7] utilizationSecCharge 9410
scalar OsgEarthNet.uav[7] utilizationSecIdle 247427.11813906
scalar OsgEarthNet.uav[7] utilizationEnergyMission 6430.7913818359
scalar OsgEarthNet.uav[7] utilizationEnergyMaintenance 4591.6836891174
scalar OsgEarthNet.uav[7] utilizationEnergyCharge 11471.425537109
scalar OsgEarthNet.uav[7] utilizationEnergyOverdrawMission 0
scalar OsgEarthNet.uav[7] utilizationEnergyOverdrawMaintenance 0
scalar OsgEarthNet.uav[7] utilizationCountMissions 3
scalar OsgEarthNet.uav[7] utilizationCountManeuversMission 40
scalar OsgEarthNet.uav[7] utilizationCountManeuversMaintenance 6
scalar OsgEarthNet.uav[7] utilizationCountChargeState 3
scalar OsgEarthNet.uav[7] utilizationCountOverdrawnAfterMission 0
scalar OsgEarthNet.uav[7] utilizationCountIdleState 4
scalar OsgEarthNet.uav[7] utilizationFail 0
scalar OsgEarthNet.uav[7] simulationTime 259200
scalar OsgEarthNet.uav[8] utilizationSecMission 40471.432393176
scalar OsgEarthNet.uav[8] utilizationSecMaintenance 16286.564606824
scalar OsgEarthNet.uav[8] utilizationSecCharge 197610
scalar OsgEarthNet.uav[8] utilizationSecIdle 4832.002
scalar OsgEarthNet.uav[8] utilizationEnergyMission 192682.45108823
scalar OsgEarthNet.uav[8] utilizationEnergyMaintenance 76015.945087433
scalar OsgEarthNet.uav[8] utilizationEnergyCharge 270041.21728516
scalar OsgEarthNet.uav[8] utilizationEnergyOverdrawMission 0
scalar OsgEarthNet.uav[8] utilizationEnergyOverdrawMaintenance 0
scalar OsgEarthNet.uav[8] utilizationCountMissions 58
scalar OsgEarthNet.uav[8] utilizationCountManeuversMission 1136
scalar OsgEarthNet.uav[8] utilizationCountManeuversMaintenance 117
scalar OsgEarthNet.uav[8] utilizationCountChargeState 58
scalar OsgEarthNet.uav[8] utilizationCountOverdrawnAfterMission 0
scalar OsgEarthNet.uav[8] utilizationCountIdleState 23
scalar OsgEarthNet.uav[8] utilizationFail 0
scalar OsgEarthNet.uav[8] simulationTime 259200
scalar OsgEarthNet.uav[9] utilizationSecMission 8725.0012206423
scalar OsgEarthNet.uav[9] utilizationSecMaintenance 4229.7786156068
scalar OsgEarthNet.uav[9] utilizationSecCharge 49060
scalar OsgEarthNet.uav[9] utilizationSecIdle 197185.21916375
scalar OsgEarthNet.uav[9] utilizationEnergyMission 42046.824207306
scalar OsgEarthNet.uav[9] utilizationEnergyMaintenance 20160.417915344
scalar OsgEarthNet.uav[9] utilizationEnergyCharge 63146.500976562
scalar OsgEarthNet.uav[9] utilizationEnergyOverdrawMission 0
scalar OsgEarthNet.uav[9] utilizationEnergyOverdrawMaintenance 0
scalar OsgEarthNet.uav[9] utilizationCountMissions 14
scalar OsgEarthNet.uav[9] utilizationCountManeuversMission 228
scalar OsgEarthNet.uav[9] utilizationCountManeuversMaintenance 28
scalar OsgEarthNet.uav[9] utilizationCountChargeState 14
scalar OsgEarthNet.uav[9] utilizationCountOverdrawnAfterMission 0
scalar OsgEarthNet.uav[9] utilizationCountIdleState 15
scalar OsgEarthNet.uav[9] utilizationFail 0
scalar OsgEarthNet.uav[9] simulationTime 259200
scalar OsgEarthNet.uav[10] utilizationSecMission 9654.0089542322
scalar OsgEarthNet.uav[10] utilizationSecMaintenance 6144.871472336
scalar OsgEarthNet.uav[10] utilizationSecCharge 59050
scalar OsgEarthNet.uav[10] utilizationSecIdle 184351.11857343
scalar OsgEarthNet.uav[10] utilizationEnergyMission 47799.131481171
scalar OsgEarthNet.uav[10] utilizationEnergyMaintenance 29140.044059753
scalar OsgEarthNet.uav[10] utilizationEnergyCharge 75894.420410156
scalar OsgEarthNet.uav[10] utilizationEnergyOverdrawMission 0
scalar OsgEarthNet.uav[10] utilizationEnergyOverdrawMaintenance 0
scalar OsgEarthNet.uav[10] utilizationCountMissions 17
scalar OsgEarthNet.uav[10] utilizationCountManeuversMission 322
scalar OsgEarthNet.uav[10] utilizationCountManeuversMaintenance 34
scalar OsgEarthNet.uav[10] utilizationCountChargeState 17
scalar OsgEarthNet.uav[10] utilizationCountOverdrawnAfterMission 0
scalar OsgEarthNet.uav[10] utilizationCountIdleState 18
scalar OsgEarthNet.uav[10] utilizationFail 0
scalar OsgEarthNet.uav[10] simulationTime 259200
scalar OsgEarthNet.uav[11] utilizationSecMission 1996.3500981245
scalar OsgEarthNet.uav[11] utilizationSecMaintenance 1372.1168172896
scalar OsgEarthNet.uav[11] utilizationSecCharge 11261.511810441
scalar OsgEarthNet.uav[11] utilizationSecIdle 244570.02027414
scalar OsgEarthNet.uav[11] utilizationEnergyMission 9541.4630241394
scalar OsgEarthNet.uav[11] utilizationEnergyMaintenance 6673.2808799744
scalar OsgEarthNet.uav[11] utilizationEnergyCharge 14746.242431641
scalar OsgEarthNet.uav[11] utilizationEnergyOverdrawMission 0
scalar OsgEarthNet.uav[11] utilizationEnergyOverdrawMaintenance 0
scalar OsgEarthNet.uav[11] utilizationCountMissions 4
scalar OsgEarthNet.uav[11] utilizationCountManeuversMission 70
scalar OsgEarthNet.uav[11] utilizationCountManeuversMaintenance 8
scalar OsgEarthNet.uav[11] utilizationCountChargeState 4
scalar OsgEarthNet.uav[11] utilizationCountOverdrawnAfterMission 0
scalar OsgEarthNet.uav[11] utilizationCountIdleState 4
scalar OsgEarthNet.uav[11] utilizationFail 0
scalar OsgEarthNet.uav[11] simulationTime 259200
scalar OsgEarthNet.uav[12] utilizationSecMission 39474.478902309
scalar OsgEarthNet.uav[12] utilizationSecMaintenance 17647.111456044
scalar OsgEarthNet.uav[12] utilizationSecCharge 197116.40564165
scalar OsgEarthNet.uav[12] utilizationSecIdle 4962.003
scalar OsgEarthNet.uav[12] utilizationEnergyMission 189926.76213074
scalar OsgEarthNet.uav[12] utilizationEnergyMaintenance 83015.321731567
scalar OsgEarthNet.uav[12] utilizationEnergyCharge 271305.81884766
scalar OsgEarthNet.uav[12] utilizationEnergyOverdrawMission 0
scalar OsgEarthNet.uav[12] utilizationEnergyOverdrawMaintenance 0
scalar OsgEarthNet.uav[12] utilizationCountMissions 59
scalar OsgEarthNet.uav[12] utilizationCountManeuversMission 1090
scalar OsgEarthNet.uav[12] utilizationCountManeuversMaintenance 118
scalar OsgEarthNet.uav[12] utilizationCountChargeState 59
scalar OsgEarthNet.uav[12] utilizationCountOverdrawnAfterMission 0
scalar OsgEarthNet.uav[12] utilizationCountIdleState 19
scalar OsgEarthNet.uav[12] utilizationFail 0
scalar OsgEarthNet.uav[12] simulationTime 259200
scalar OsgEarthNet.uav[13] utilizationSecMission 13023.750915482
scalar OsgEarthNet.uav[13] utilizationSecMaintenance 9387.3215614681
scalar OsgEarthNet.uav[13] utilizationSecCharge 84610
scalar OsgEarthNet.uav[13] utilizationSecIdle 152178.92652305
scalar OsgEarthNet.uav[13] utilizationEnergyMission 63789.038860321
scalar OsgEarthNet.uav[13] utilizationEnergyMaintenance 44137.753417969
scalar OsgEarthNet.uav[13] utilizationEnergyCharge 108916.37060547
scalar OsgEarthNet.uav[13] utilizationEnergyOverdrawMission 0
scalar OsgEarthNet.uav[13] utilizationEnergyOverdrawMaintenance 0
scalar OsgEarthNet.uav[13] utilizationCountMissions 24
scalar OsgEarthNet.uav[13] utilizationCountManeuversMission 495
scalar OsgEarthNet.uav[13] utilizationCountManeuversMaintenance 48
scalar OsgEarthNet.uav[13] utilizationCountChargeState 24
scalar OsgEarthNet.uav[13] utilizationCountOverdrawnAfterMission 0
scalar OsgEarthNet.uav[13] utilizationCountIdleState 25
scalar OsgEarthNet.uav[13] utilizationFail 0
scalar OsgEarthNet.uav[13] simulationTime 259200
scalar OsgEarthNet.uav[14] utilizationSecMission 7782.6593608573
scalar OsgEarthNet.uav[14] utilizationSecMaintenance 6017.6852137478
scalar OsgEarthNet.uav[14] utilizationSecCharge 55530
scalar OsgEarthNet.uav[14] utilizationSecIdle 189869.65442539
scalar OsgEarthNet.uav[14] utilizationEnergyMission 39272.085968018
scalar OsgEarthNet.uav[14] utilizationEnergyMaintenance 28471.414432526
scalar OsgEarthNet.uav[14] utilizationEnergyCharge 67473.022949219
scalar OsgEarthNet.uav[14] utilizationEnergyOverdrawMission 0
scalar OsgEarthNet.uav[14] utilizationEnergyOverdrawMaintenance 0
scalar OsgEarthNet.uav[14] utilizationCountMissions 18
scalar OsgEarthNet.uav[14] utilizationCountManeuversMission 269
scalar OsgEarthNet.uav[14] utilizationCountManeuversMaintenance 36
scalar OsgEarthNet.uav[14] utilizationCountChargeState 18
scalar OsgEarthNet.uav[14] utilizationCountOverdrawnAfterMission 0
scalar OsgEarthNet.uav[14] utilizationCountIdleState 19
scalar OsgEarthNet.uav[14] utilizationFail 0
scalar OsgEarthNet.uav[14] simulationTime 259200
scalar OsgEarthNet.uav[15] utilizationSecMission 40094.649558534
scalar OsgEarthNet.uav[15] utilizationSecMaintenance 17243.348441466
scalar OsgEarthNet.uav[15] utilizationSecCharge 197980
scalar OsgEarthNet.uav[15] utilizationSecIdle 3882.001
scalar OsgEarthNet.uav[15] utilizationEnergyMission 193126.62905896
scalar OsgEarthNet.uav[15] utilizationEnergyMaintenance 79743.228046417
scalar OsgEarthNet.uav[15] utilizationEnergyCharge 272417.15087891
scalar OsgEarthNet.uav[15] utilizationEnergyOverdrawMission 0
scalar OsgEarthNet.uav[15] utilizationEnergyOverdrawMaintenance 0
scalar OsgEarthNet.uav[15] utilizationCountMissions 59
scalar OsgEarthNet.uav[15] utilizationCountManeuversMission 1186
scalar OsgEarthNet.uav[15] utilizationCountManeuversMaintenance 119
scalar OsgEarthNet.uav[15] utilizationCountChargeState 59
scalar OsgEarthNet.uav[15] utilizationCountOverdrawnAfterMission 0
scalar OsgEarthNet.uav[15] utilizationCountIdleState 21
scalar OsgEarthNet.uav[15] utilizationFail 0
scalar OsgEarthNet.uav[15] simulationTime 259200
scalar OsgEarthNet.uav[16] utilizationSecMission 13706.251525803
scalar OsgEarthNet.uav[16] utilizationSecMaintenance 7835.5404457963
scalar OsgEarthNet.uav[16] utilizationSecCharge 78266.190028401
scalar OsgEarthNet.uav[16] utilizationSecIdle 159392.017
scalar OsgEarthNet.uav[16] utilizationEnergyMission 65860.955806732
scalar OsgEarthNet.uav[16] utilizationEnergyMaintenance 37132.624378204
scalar OsgEarthNet.uav[16] utilizationEnergyCharge 101370.1862793
scalar OsgEarthNet.uav[16] utilizationEnergyOverdrawMission 0
scalar OsgEarthNet.uav[16] utilizationEnergyOverdrawMaintenance 0
scalar OsgEarthNet.uav[16] utilizationCountMissions 23
scalar OsgEarthNet.uav[16] utilizationCountManeuversMission 425
scalar OsgEarthNet.uav[16] utilizationCountManeuversMaintenance 46
scalar OsgEarthNet.uav[16] utilizationCountChargeState 23
scalar OsgEarthNet.uav[16] utilizationCountOverdrawnAfterMission 0
scalar OsgEarthNet.uav[16] utilizationCountIdleState 23
scalar OsgEarthNet.uav[16] utilizationFail 0
scalar OsgEarthNet.uav[16] simulationTime 259200
scalar OsgEarthNet.uav[17] utilizationSecMission 6511.9981258772
scalar OsgEarthNet.uav[17] utilizationSecMaintenance 4385.0389654942
scalar OsgEarthNet.uav[17] utilizationSecCharge 42451.829545771
scalar OsgEarthNet.uav[17] utilizationSecIdle 205851.13236286
scalar OsgEarthNet.uav[17] utilizationEnergyMission 31891.410957336
scalar OsgEarthNet.uav[17] utilizationEnergyMaintenance 20626.073280334
scalar OsgEarthNet.uav[17] utilizationEnergyCharge 53283.945556641
scalar OsgEarthNet.uav[17] utilizationEnergyOverdrawMission 0
scalar OsgEarthNet.uav[17] utilizationEnergyOverdrawMaintenance 0
scalar OsgEarthNet.uav[17] utilizationCountMissions 13
scalar OsgEarthNet.uav[17] utilizationCountManeuversMission 214
scalar OsgEarthNet.uav[17] utilizationCountManeuversMaintenance 26
scalar OsgEarthNet.uav[17] utilizationCountChargeState 13
scalar OsgEarthNet.uav[17] utilizationCountOverdrawnAfterMission 0
scalar OsgEarthNet.uav[17] utilizationCountIdleState 13
scalar OsgEarthNet.uav[17] utilizationFail 0
scalar OsgEarthNet.uav[17] simulationTime 259200
scalar OsgEarthNet.uav[18] utilizationSecMission 38780.570747387
scalar OsgEarthNet.uav[18] utilizationSecMaintenance 18080.985230536
scalar OsgEarthNet.uav[18] utilizationSecCharge 195614.14264285
scalar OsgEarthNet.uav[18] utilizationSecIdle 6724.3003792274
scalar OsgEarthNet.uav[18] utilizationEnergyMission 188517.47812653
scalar OsgEarthNet.uav[18] utilizationEnergyMaintenance 82976.485824585
scalar OsgEarthNet.uav[18] utilizationEnergyCharge 269400.6706543
scalar OsgEarthNet.uav[18] utilizationEnergyOverdrawMission 0
scalar OsgEarthNet.uav[18] utilizationEnergyOverdrawMaintenance 0
scalar OsgEarthNet.uav[18] utilizationCountMissions 59
scalar OsgEarthNet.uav[18] utilizationCountManeuversMission 1232
scalar OsgEarthNet.uav[18] utilizationCountManeuversMaintenance 118
scalar OsgEarthNet.uav[18] utilizationCountChargeState 59
scalar OsgEarthNet.uav[18] utilizationCountOverdrawnAfterMission 0
scalar OsgEarthNet.uav[18] utilizationCountIdleState 20
scalar OsgEarthNet.uav[18] utilizationFail 0
scalar OsgEarthNet.uav[18] simulationTime 259200
scalar OsgEarthNet.uav[19] utilizationSecMission 13245.626373223
scalar OsgEarthNet.uav[19] utilizationSecMaintenance 8361.9192489591
scalar OsgEarthNet.uav[19] utilizationSecCharge 78239.687412479
scalar OsgEarthNet.uav[19] utilizationSecIdle 159352.76596534
scalar OsgEarthNet.uav[19] utilizationEnergyMission 64341.525318146
scalar OsgEarthNet.uav[19] utilizationEnergyMaintenance 39707.95614624
scalar OsgEarthNet.uav[19] utilizationEnergyCharge 101020.89111328
scalar OsgEarthNet.uav[19] utilizationEnergyOverdrawMission 0
scalar OsgEarthNet.uav[19] utilizationEnergyOverdrawMaintenance 0
scalar OsgEarthNet.uav[19] utilizationCountMissions 23
scalar OsgEarthNet.uav[19] utilizationCountManeuversMission 428
scalar OsgEarthNet.uav[19] utilizationCountManeuversMaintenance 46
scalar OsgEarthNet.uav[19] utilizationCountChargeState 23
scalar OsgEarthNet.uav[19] utilizationCountOverdrawnAfterMission 0
scalar OsgEarthNet.uav[19] utilizationCountIdleState 23
scalar OsgEarthNet.uav[19] utilizationFail 0
scalar OsgEarthNet.uav[19] simulationTime 259200
scalar OsgEarthNet.uav[20] utilizationSecMission 10093.492876731
scalar OsgEarthNet.uav[20] utilizationSecMaintenance 6658.4871987013
scalar OsgEarthNet.uav[20] utilizationSecCharge 62920
scalar OsgEarthNet.uav[20] utilizationSecIdle 179528.01892457
scalar OsgEarthNet.uav[20] utilizationEnergyMission 49165.829322815
scalar OsgEarthNet.uav[20] utilizationEnergyMaintenance 31763.376987457
scalar OsgEarthNet.uav[20] utilizationEnergyCharge 80979.63671875
scalar OsgEarthNet.uav[20] utilizationEnergyOverdrawMission 0
scalar OsgEarthNet.uav[20] utilizationEnergyOverdrawMaintenance 0
scalar OsgEarthNet.uav[20] utilizationCountMissions 18
scalar OsgEarthNet.uav[20] utilizationCountManeuversMission 353
scalar OsgEarthNet.uav[20] utilizationCountManeuversMaintenance 36
scalar OsgEarthNet.uav[20] utilizationCountChargeState 18
scalar OsgEarthNet.uav[20] utilizationCountOverdrawnAfterMission 0
scalar OsgEarthNet.uav[20] utilizationCountIdleState 19
scalar OsgEarthNet.uav[20] utilizationFail 0
scalar OsgEarthNet.uav[20] simulationTime 259200
scalar OsgEarthNet.uav[21] utilizationSecMission 20693.253345991
scalar OsgEarthNet.uav[21] utilizationSecMaintenance 14476.595204841
scalar OsgEarthNet.uav[21] utilizationSecCharge 137018.15044917
scalar OsgEarthNet.uav[21] utilizationSecIdle 87012
scalar OsgEarthNet.uav[21] utilizationEnergyMission 100888.04730988
scalar OsgEarthNet.uav[21] utilizationEnergyMaintenance 68140.685703278
scalar OsgEarthNet.uav[21] utilizationEnergyCharge 169602.17285156
scalar OsgEarthNet.uav[21] utilizationEnergyOverdrawMission 0
scalar OsgEarthNet.uav[21] utilizationEnergyOverdrawMaintenance 0
scalar OsgEarthNet.uav[21] utilizationCountMissions 43
scalar OsgEarthNet.uav[21] utilizationCountManeuversMission 699
scalar OsgEarthNet.uav[21] utilizationCountManeuversMaintenance 86
scalar OsgEarthNet.uav[21] utilizationCountChargeState 43
scalar OsgEarthNet.uav[21] utilizationCountOverdrawnAfterMission 0
scalar OsgEarthNet.uav[21] utilizationCountIdleState 43
scalar OsgEarthNet.uav[21] utilizationFail 0
scalar OsgEarthNet.uav[21] simulationTime 259200
scalar OsgEarthNet.uav[22] utilizationSecMission 39002.142221726
scalar OsgEarthNet.uav[22] utilizationSecMaintenance 18422.608544215
scalar OsgEarthNet.uav[22] utilizationSecCharge 198035.61715339
scalar OsgEarthNet.uav[22] utilizationSecIdle 3739.6310806652
scalar OsgEarthNet.uav[22] utilizationEnergyMission 191067.19506454
scalar OsgEarthNet.uav[22] utilizationEnergyMaintenance 85411.123703003
scalar OsgEarthNet.uav[22] utilizationEnergyCharge 274206.33911133
scalar OsgEarthNet.uav[22] utilizationEnergyOverdrawMission 0
scalar OsgEarthNet.uav[22] utilizationEnergyOverdrawMaintenance 0
scalar OsgEarthNet.uav[22] utilizationCountMissions 60
scalar OsgEarthNet.uav[22] utilizationCountManeuversMission 1274
scalar OsgEarthNet.uav[22] utilizationCountManeuversMaintenance 120
scalar OsgEarthNet.uav[22] utilizationCountChargeState 60
scalar OsgEarthNet.uav[22] utilizationCountOverdrawnAfterMission 0
scalar OsgEarthNet.uav[22] utilizationCountIdleState 15
scalar OsgEarthNet.uav[22] utilizationFail 0
scalar OsgEarthNet.uav[22] simulationTime 259200
scalar OsgEarthNet.uav[23] utilizationSecMission 10305.001220642
scalar OsgEarthNet.uav[23] utilizationSecMaintenance 5746.8084400939
scalar OsgEarthNet.uav[23] utilizationSecCharge 60230
scalar OsgEarthNet.uav[23] utilizationSecIdle 182918.18933926
scalar OsgEarthNet.uav[23] utilizationEnergyMission 51153.074855804
scalar OsgEarthNet.uav[23] utilizationEnergyMaintenance 27484.457439423
scalar OsgEarthNet.uav[23] utilizationEnergyCharge 77618.387207031
scalar OsgEarthNet.uav[23] utilizationEnergyOverdrawMission 0
scalar OsgEarthNet.uav[23] utilizationEnergyOverdrawMaintenance 0
scalar OsgEarthNet.uav[23] utilizationCountMissions 17
scalar OsgEarthNet.uav[23] utilizationCountManeuversMission 307
scalar OsgEarthNet.uav[23] utilizationCountManeuversMaintenance 34
scalar OsgEarthNet.uav[23] utilizationCountChargeState 17
scalar OsgEarthNet.uav[23] utilizationCountOverdrawnAfterMission 0
scalar OsgEarthNet.uav[23] utilizationCountIdleState 18
scalar OsgEarthNet.uav[23] utilizationFail 0
scalar OsgEarthNet.uav[23] simulationTime 259200
scalar OsgEarthNet.uav[24] utilizationSecMission 15090.593985133
scalar OsgEarthNet.uav[24] utilizationSecMaintenance 10050.292424922
scalar OsgEarthNet.uav[24] utilizationSecCharge 95087.106589945
scalar OsgEarthNet.uav[24] utilizationSecIdle 138972.006
scalar OsgEarthNet.uav[24] utilizationEnergyMission 73569.657207489
scalar OsgEarthNet.uav[24] utilizationEnergyMaintenance 47459.827907562
scalar OsgEarthNet.uav[24] utilizationEnergyCharge 120224.48046875
scalar OsgEarthNet.uav[24] utilizationEnergyOverdrawMission 0
scalar OsgEarthNet.uav[24] utilizationEnergyOverdrawMaintenance 0
scalar OsgEarthNet.uav[24] utilizationCountMissions 29
scalar OsgEarthNet.uav[24] utilizationCountManeuversMission 539
scalar OsgEarthNet.uav[24] utilizationCountManeuversMaintenance 58
scalar OsgEarthNet.uav[24] utilizationCountChargeState 29
scalar OsgEarthNet.uav[24] utilizationCountOverdrawnAfterMission 0
scalar OsgEarthNet.uav[24] utilizationCountIdleState 29
scalar OsgEarthNet.uav[24] utilizationFail 0
scalar OsgEarthNet.uav[24] simulationTime 259200
scalar OsgEarthNet.uav[25] utilizationSecMission 41495.999196722
scalar OsgEarthNet.uav[25] utilizationSecMaintenance 16056.646353262
scalar OsgEarthNet.uav[25] utilizationSecCharge 197685.35345002
scalar OsgEarthNet.uav[25] utilizationSecIdle 3962
scalar OsgEarthNet.uav[25] utilizationEnergyMission 200274.74621227
scalar OsgEarthNet.uav[25] utilizationEnergyMaintenance 74471.768222809
scalar OsgEarthNet.uav[25] utilizationEnergyCharge 269583.83496094
scalar OsgEarthNet.uav[25] utilizationEnergyOverdrawMission 0
scalar OsgEarthNet.uav[25] utilizationEnergyOverdrawMaintenance 0
scalar OsgEarthNet.uav[25] utilizationCountMissions 59
scalar OsgEarthNet.uav[25] utilizationCountManeuversMission 1250
scalar OsgEarthNet.uav[25] utilizationCountManeuversMaintenance 117
scalar OsgEarthNet.uav[25] utilizationCountChargeState 59
scalar OsgEarthNet.uav[25] utilizationCountOverdrawnAfterMission 0
scalar OsgEarthNet.uav[25] utilizationCountIdleState 21
scalar OsgEarthNet.uav[25] utilizationFail 0
scalar OsgEarthNet.uav[25] simulationTime 259200
scalar OsgEarthNet.uav[26] utilizationSecMission 13524.376068062
scalar OsgEarthNet.uav[26] utilizationSecMaintenance 9493.1404496355
scalar OsgEarthNet.uav[26] utilizationSecCharge 87090
scalar OsgEarthNet.uav[26] utilizationSecIdle 149092.4824823
scalar OsgEarthNet.uav[26] utilizationEnergyMission 66891.12040329
scalar OsgEarthNet.uav[26] utilizationEnergyMaintenance 45445.485210419
scalar OsgEarthNet.uav[26] utilizationEnergyCharge 111671.38574219
scalar OsgEarthNet.uav[26] utilizationEnergyOverdrawMission 0
scalar OsgEarthNet.uav[26] utilizationEnergyOverdrawMaintenance 0
scalar OsgEarthNet.uav[26] utilizationCountMissions 25
scalar OsgEarthNet.uav[26] utilizationCountManeuversMission 494
scalar OsgEarthNet.uav[26] utilizationCountManeuversMaintenance 50
scalar OsgEarthNet.uav[26] utilizationCountChargeState 25
scalar OsgEarthNet.uav[26] utilizationCountOverdrawnAfterMission 0
scalar OsgEarthNet.uav[26] utilizationCountIdleState 26
scalar OsgEarthNet.uav[26] utilizationFail 0
scalar OsgEarthNet.uav[26] simulationTime 259200
scalar OsgEarthNet.uav[27] utilizationSecMission 16171.916455094
scalar OsgEarthNet.uav[27] utilizationSecMaintenance 12129.121365482
scalar OsgEarthNet.uav[27] utilizationSecCharge 111290
scalar OsgEarthNet.uav[27] utilizationSecIdle 119608.96117942
scalar OsgEarthNet.uav[27] utilizationEnergyMission 78515.150218964
scalar OsgEarthNet.uav[27] utilizationEnergyMaintenance 57290.344924927
scalar OsgEarthNet.uav[27] utilizationEnergyCharge 135690.97290039
scalar OsgEarthNet.uav[27] utilizationEnergyOverdrawMission 0
scalar OsgEarthNet.uav[27] utilizationEnergyOverdrawMaintenance 0
scalar OsgEarthNet.uav[27] utilizationCountMissions 36
scalar OsgEarthNet.uav[27] utilizationCountManeuversMission 576
scalar OsgEarthNet.uav[27] utilizationCountManeuversMaintenance 72
scalar OsgEarthNet.uav[27] utilizationCountChargeState 36
scalar OsgEarthNet.uav[27] utilizationCountOverdrawnAfterMission 0
scalar OsgEarthNet.uav[27] utilizationCountIdleState 37
scalar OsgEarthNet.uav[27] utilizationFail 0
scalar OsgEarthNet.uav[27] simulationTime 259200
scalar OsgEarthNet.uav[28] utilizationSecMission 40103.829086856
scalar OsgEarthNet.uav[28] utilizationSecMaintenance 18000.755463915
scalar OsgEarthNet.uav[28] utilizationSecCharge 197119.06422841
scalar OsgEarthNet.uav[28] utilizationSecIdle 3976.3502208215
scalar OsgEarthNet.uav[28] utilizationEnergyMission 193870.14503479
scalar OsgEarthNet.uav[28] utilizationEnergyMaintenance 82253.178207397
scalar OsgEarthNet.uav[28] utilizationEnergyCharge 273021.20141602
scalar OsgEarthNet.uav[28] utilizationEnergyOverdrawMission 0
scalar OsgEarthNet.uav[28] utilizationEnergyOverdrawMaintenance 0
scalar OsgEarthNet.uav[28] utilizationCountMissions 60
scalar OsgEarthNet.uav[28] utilizationCountManeuversMission 1265
scalar OsgEarthNet.uav[28] utilizationCountManeuversMaintenance 120
scalar OsgEarthNet.uav[28] utilizationCountChargeState 60
scalar OsgEarthNet.uav[28] utilizationCountOverdrawnAfterMission 0
scalar OsgEarthNet.uav[28] utilizationCountIdleState 15
scalar OsgEarthNet.uav[28] utilizationFail 0
scalar OsgEarthNet.uav[28] simulationTime 259200
scalar OsgEarthNet.uav[29] utilizationSecMission 12094.118029311
scalar OsgEarthNet.uav[29] utilizationSecMaintenance 8096.5699468753
scalar OsgEarthNet.uav[29] utilizationSecCharge 76860
scalar OsgEarthNet.uav[29] utilizationSecIdle 162149.31102381
scalar OsgEarthNet.uav[29] utilizationEnergyMission 58831.599872589
scalar OsgEarthNet.uav[29] utilizationEnergyMaintenance 38749.50730133
scalar OsgEarthNet.uav[29] utilizationEnergyCharge 98839.947265625
scalar OsgEarthNet.uav[29] utilizationEnergyOverdrawMission 0
scalar OsgEarthNet.uav[29] utilizationEnergyOverdrawMaintenance 0
scalar OsgEarthNet.uav[29] utilizationCountMissions 22
scalar OsgEarthNet.uav[29] utilizationCountManeuversMission 427
scalar OsgEarthNet.uav[29] utilizationCountManeuversMaintenance 44
scalar OsgEarthNet.uav[29] utilizationCountChargeState 22
scalar OsgEarthNet.uav[29] utilizationCountOverdrawnAfterMission 0
scalar OsgEarthNet.uav[29] utilizationCountIdleState 23
scalar OsgEarthNet.uav[29] utilizationFail 0
scalar OsgEarthNet.uav[29] simulationTime 259200
scalar OsgEarthNet.uav[30] utilizationSecMission 11114.743181892
scalar OsgEarthNet.uav[30] utilizationSecMaintenance 6510.0605701554
scalar OsgEarthNet.uav[30] utilizationSecCharge 66010
scalar OsgEarthNet.uav[30] utilizationSecIdle 175565.19524795
scalar OsgEarthNet.uav[30] utilizationEnergyMission 54267.881168365
scalar OsgEarthNet.uav[30] utilizationEnergyMaintenance 30758.983230591
scalar OsgEarthNet.uav[30] utilizationEnergyCharge 84379.919433594
scalar OsgEarthNet.uav[30] utilizationEnergyOverdrawMission 0
scalar OsgEarthNet.uav[30] utilizationEnergyOverdrawMaintenance 0
scalar OsgEarthNet.uav[30] utilizationCountMissions 19
scalar OsgEarthNet.uav[30] utilizationCountManeuversMission 352
scalar OsgEarthNet.uav[30] utilizationCountManeuversMaintenance 38
scalar OsgEarthNet.uav[30] utilizationCountChargeState 19
scalar OsgEarthNet.uav[30] utilizationCountOverdrawnAfterMission 0
scalar OsgEarthNet.uav[30] utilizationCountIdleState 20
scalar OsgEarthNet.uav[30] utilizationFail 0
scalar OsgEarthNet.uav[30] simulationTime 259200
scalar OsgEarthNet.uav[31] utilizationSecMission 17401.962305563
scalar OsgEarthNet.uav[31] utilizationSecMaintenance 12591.642716802
scalar OsgEarthNet.uav[31] utilizationSecCharge 118210
scalar OsgEarthNet.uav[31] utilizationSecIdle 110996.39397763
scalar OsgEarthNet.uav[31] utilizationEnergyMission 83883.481246948
scalar OsgEarthNet.uav[31] utilizationEnergyMaintenance 59800.223152161
scalar OsgEarthNet.uav[31] utilizationEnergyCharge 144350.46264648
scalar OsgEarthNet.uav[31] utilizationEnergyOverdrawMission 0
scalar OsgEarthNet.uav[31] utilizationEnergyOverdrawMaintenance 0
scalar OsgEarthNet.uav[31] utilizationCountMissions 38
scalar OsgEarthNet.uav[31] utilizationCountManeuversMission 550
scalar OsgEarthNet.uav[31] utilizationCountManeuversMaintenance 76
scalar OsgEarthNet.uav[31] utilizationCountChargeState 38
scalar OsgEarthNet.uav[31] utilizationCountOverdrawnAfterMission 0
scalar OsgEarthNet.uav[31] utilizationCountIdleState 39
scalar OsgEarthNet.uav[31] utilizationFail 0
scalar OsgEarthNet.uav[31] simulationTime 259200
scalar OsgEarthNet.uav[32] utilizationSecMission 40044.462996062
scalar OsgEarthNet.uav[32] utilizationSecMaintenance 17703.536003938
scalar OsgEarthNet.uav[32] utilizationSecCharge 198550
scalar OsgEarthNet.uav[32] utilizationSecIdle 2902
scalar OsgEarthNet.uav[32] utilizationEnergyMission 191993.30167503
scalar OsgEarthNet.uav[32] utilizationEnergyMaintenance 82080.162903026
scalar OsgEarthNet.uav[32] utilizationEnergyCharge 271910.6796875
scalar OsgEarthNet.uav[32] utilizationEnergyOverdrawMission 0
scalar OsgEarthNet.uav[32] utilizationEnergyOverdrawMaintenance 0
scalar OsgEarthNet.uav[32] utilizationCountMissions 60
scalar OsgEarthNet.uav[32] utilizationCountManeuversMission 1248
scalar OsgEarthNet.uav[32] utilizationCountManeuversMaintenance 119
scalar OsgEarthNet.uav[32] utilizationCountChargeState 59
scalar OsgEarthNet.uav[32] utilizationCountOverdrawnAfterMission 0
scalar OsgEarthNet.uav[32] utilizationCountIdleState 24
scalar OsgEarthNet.uav[32] utilizationFail 0
scalar OsgEarthNet.uav[32] simulationTime 259200
scalar OsgEarthNet.uav[33] utilizationSecMission 13845.626373223
scalar OsgEarthNet.uav[33] utilizationSecMaintenance 8537.2176893592
scalar OsgEarthNet.uav[33] utilizationSecCharge 84120
scalar OsgEarthNet.uav[33] utilizationSecIdle 152697.15493742
scalar OsgEarthNet.uav[33] utilizationEnergyMission 66994.190723419
scalar OsgEarthNet.uav[33] utilizationEnergyMaintenance 40409.079742432
scalar OsgEarthNet.uav[33] utilizationEnergyCharge 108340.78027344
scalar OsgEarthNet.uav[33] utilizationEnergyOverdrawMission 0
scalar OsgEarthNet.uav[33] utilizationEnergyOverdrawMaintenance 0
scalar OsgEarthNet.uav[33] utilizationCountMissions 24
scalar OsgEarthNet.uav[33] utilizationCountManeuversMission 458
scalar OsgEarthNet.uav[33] utilizationCountManeuversMaintenance 48
scalar OsgEarthNet.uav[33] utilizationCountChargeState 24
scalar OsgEarthNet.uav[33] utilizationCountOverdrawnAfterMission 0
scalar OsgEarthNet.uav[33] utilizationCountIdleState 25
scalar OsgEarthNet.uav[33] utilizationFail 0
scalar OsgEarthNet.uav[33] simulationTime 259200
scalar OsgEarthNet.uav[34] utilizationSecMission 22801.171909244
scalar OsgEarthNet.uav[34] utilizationSecMaintenance 14487.405038198
scalar OsgEarthNet.uav[34] utilizationSecCharge 143640
scalar OsgEarthNet.uav[34] utilizationSecIdle 78271.422052558
scalar OsgEarthNet.uav[34] utilizationEnergyMission 112203.11177826
scalar OsgEarthNet.uav[34] utilizationEnergyMaintenance 68184.064071655
scalar OsgEarthNet.uav[34] utilizationEnergyCharge 179588.53344727
scalar OsgEarthNet.uav[34] utilizationEnergyOverdrawMission 0
scalar OsgEarthNet.uav[34] utilizationEnergyOverdrawMaintenance 0
scalar OsgEarthNet.uav[34] utilizationCountMissions 44
scalar OsgEarthNet.uav[34] utilizationCountManeuversMission 706
scalar OsgEarthNet.uav[34] utilizationCountManeuversMaintenance 87
scalar OsgEarthNet.uav[34] utilizationCountChargeState 44
scalar OsgEarthNet.uav[34] utilizationCountOverdrawnAfterMission 0
scalar OsgEarthNet.uav[34] utilizationCountIdleState 45
scalar OsgEarthNet.uav[34] utilizationFail 0
scalar OsgEarthNet.uav[34] simulationTime 259200
scalar OsgEarthNet.uav[35] utilizationSecMission 39885.944159227
scalar OsgEarthNet.uav[35] utilizationSecMaintenance 16408.670647235
scalar OsgEarthNet.uav[35] utilizationSecCharge 196500
scalar OsgEarthNet.uav[35] utilizationSecIdle 6405.3841935382
scalar OsgEarthNet.uav[35] utilizationEnergyMission 192211.497509
scalar OsgEarthNet.uav[35] utilizationEnergyMaintenance 75226.175895691
scalar OsgEarthNet.uav[35] utilizationEnergyCharge 267940.19482422
scalar OsgEarthNet.uav[35] utilizationEnergyOverdrawMission 0
scalar OsgEarthNet.uav[35] utilizationEnergyOverdrawMaintenance 0
scalar OsgEarthNet.uav[35] utilizationCountMissions 58
scalar OsgEarthNet.uav[35] utilizationCountManeuversMission 1079
scalar OsgEarthNet.uav[35] utilizationCountManeuversMaintenance 116
scalar OsgEarthNet.uav[35] utilizationCountChargeState 58
scalar OsgEarthNet.uav[35] utilizationCountOverdrawnAfterMission 0
scalar OsgEarthNet.uav[35] utilizationCountIdleState 22
scalar OsgEarthNet.uav[35] utilizationFail 0
scalar OsgEarthNet.uav[35] simulationTime 259200
scalar OsgEarthNet.uav[36] utilizationSecMission 15647.501830963
scalar OsgEarthNet.uav[36] utilizationSecMaintenance 8951.4778793682
scalar OsgEarthNet.uav[36] utilizationSecCharge 91450
scalar OsgEarthNet.uav[36] utilizationSecIdle 143151.01928967
scalar OsgEarthNet.uav[36] utilizationEnergyMission 75039.902263641
scalar OsgEarthNet.uav[36] utilizationEnergyMaintenance 41997.200149536
scalar OsgEarthNet.uav[36] utilizationEnergyCharge 117581.54150391
scalar OsgEarthNet.uav[36] utilizationEnergyOverdrawMission 0
scalar OsgEarthNet.uav[36] utilizationEnergyOverdrawMaintenance 0
scalar OsgEarthNet.uav[36] utilizationCountMissions 26
scalar OsgEarthNet.uav[36] utilizationCountManeuversMission 470
scalar OsgEarthNet.uav[36] utilizationCountManeuversMaintenance 52
scalar OsgEarthNet.uav[36] utilizationCountChargeState 26
scalar OsgEarthNet.uav[36] utilizationCountOverdrawnAfterMission 0
scalar OsgEarthNet.uav[36] utilizationCountIdleState 27
scalar OsgEarthNet.uav[36] utilizationFail 0
scalar OsgEarthNet.uav[36] simulationTime 259200
scalar OsgEarthNet.uav[37] utilizationSecMission 22959.149008998
scalar OsgEarthNet.uav[37] utilizationSecMaintenance 15459.234226552
scalar OsgEarthNet.uav[37] utilizationSecCharge 147660
scalar OsgEarthNet.uav[37] utilizationSecIdle 73121.61576445
scalar OsgEarthNet.uav[37] utilizationEnergyMission 111600.62495422
scalar OsgEarthNet.uav[37] utilizationEnergyMaintenance 72966.858417511
scalar OsgEarthNet.uav[37] utilizationEnergyCharge 183095.22753906
scalar OsgEarthNet.uav[37] utilizationEnergyOverdrawMission 0
scalar OsgEarthNet.uav[37] utilizationEnergyOverdrawMaintenance 0
scalar OsgEarthNet.uav[37] utilizationCountMissions 46
scalar OsgEarthNet.uav[37] utilizationCountManeuversMission 768
scalar OsgEarthNet.uav[37] utilizationCountManeuversMaintenance 92
scalar OsgEarthNet.uav[37] utilizationCountChargeState 46
scalar OsgEarthNet.uav[37] utilizationCountOverdrawnAfterMission 0
scalar OsgEarthNet.uav[37] utilizationCountIdleState 47
scalar OsgEarthNet.uav[37] utilizationFail 0
scalar OsgEarthNet.uav[37] simulationTime 259200
scalar OsgEarthNet.uav[38] utilizationSecMission 40440.028433635
scalar OsgEarthNet.uav[38] utilizationSecMaintenance 17101.611502654
scalar OsgEarthNet.uav[38] utilizationSecCharge 196896.35706371
scalar OsgEarthNet.uav[38] utilizationSecIdle 4762.002
scalar OsgEarthNet.uav[38] utilizationEnergyMission 194603.11154938
scalar OsgEarthNet.uav[38] utilizationEnergyMaintenance 77909.020465851
scalar OsgEarthNet.uav[38] utilizationEnergyCharge 272349.34814453
scalar OsgEarthNet.uav[38] utilizationEnergyOverdrawMission 0
scalar OsgEarthNet.uav[38] utilizationEnergyOverdrawMaintenance 0
scalar OsgEarthNet.uav[38] utilizationCountMissions 59
scalar OsgEarthNet.uav[38] utilizationCountManeuversMission 1215
scalar OsgEarthNet.uav[38] utilizationCountManeuversMaintenance 118
scalar OsgEarthNet.uav[38] utilizationCountChargeState 59
scalar OsgEarthNet.uav[38] utilizationCountOverdrawnAfterMission 0
scalar OsgEarthNet.uav[38] utilizationCountIdleState 22
scalar OsgEarthNet.uav[38] utilizationFail 0
scalar OsgEarthNet.uav[38] simulationTime 259200
scalar OsgEarthNet.uav[39] utilizationSecMission 11995.884411973
scalar OsgEarthNet.uav[39] utilizationSecMaintenance 6724.4301027451
scalar OsgEarthNet.uav[39] utilizationSecCharge 69490.656997996
scalar OsgEarthNet.uav[39] utilizationSecIdle 170989.02748729
scalar OsgEarthNet.uav[39] utilizationEnergyMission 57488.828487396
scalar OsgEarthNet.uav[39] utilizationEnergyMaintenance 31922.80651474
scalar OsgEarthNet.uav[39] utilizationEnergyCharge 90102.520996094
scalar OsgEarthNet.uav[39] utilizationEnergyOverdrawMission 0
scalar OsgEarthNet.uav[39] utilizationEnergyOverdrawMaintenance 0
scalar OsgEarthNet.uav[39] utilizationCountMissions 20
scalar OsgEarthNet.uav[39] utilizationCountManeuversMission 361
scalar OsgEarthNet.uav[39] utilizationCountManeuversMaintenance 40
scalar OsgEarthNet.uav[39] utilizationCountChargeState 20
scalar OsgEarthNet.uav[39] utilizationCountOverdrawnAfterMission 0
scalar OsgEarthNet.uav[39] utilizationCountIdleState 20
scalar OsgEarthNet.uav[39] utilizationFail 0
scalar OsgEarthNet.uav[39] simulationTime 259200
scalar OsgEarthNet.uav[40] utilizationSecMission 12453.383801652
scalar OsgEarthNet.uav[40] utilizationSecMaintenance 9161.0433515739
scalar OsgEarthNet.uav[40] utilizationSecCharge 81060
scalar OsgEarthNet.uav[40] utilizationSecIdle 156525.57184677
scalar OsgEarthNet.uav[40] utilizationEnergyMission 62487.02281189
scalar OsgEarthNet.uav[40] utilizationEnergyMaintenance 43825.550037384
scalar OsgEarthNet.uav[40] utilizationEnergyCharge 104512.85498047
scalar OsgEarthNet.uav[40] utilizationEnergyOverdrawMission 0
scalar OsgEarthNet.uav[40] utilizationEnergyOverdrawMaintenance 0
scalar OsgEarthNet.uav[40] utilizationCountMissions 23
scalar OsgEarthNet.uav[40] utilizationCountManeuversMission 488
scalar OsgEarthNet.uav[40] utilizationCountManeuversMaintenance 46
scalar OsgEarthNet.uav[40] utilizationCountChargeState 23
scalar OsgEarthNet.uav[40] utilizationCountOverdrawnAfterMission 0
scalar OsgEarthNet.uav[40] utilizationCountIdleState 24
scalar OsgEarthNet.uav[40] utilizationFail 0
scalar OsgEarthNet.uav[40] simulationTime 259200
scalar OsgEarthNet.uav[41] utilizationSecMission 20694.232014097
scalar OsgEarthNet.uav[41] utilizationSecMaintenance 14242.024240251
scalar OsgEarthNet.uav[41] utilizationSecCharge 134540
scalar OsgEarthNet.uav[41] utilizationSecIdle 89723.742745652
scalar OsgEarthNet.uav[41] utilizationEnergyMission 100276.80984147
scalar OsgEarthNet.uav[41] utilizationEnergyMaintenance 67451.175571442
scalar OsgEarthNet.uav[41] utilizationEnergyCharge 166801.07592773
scalar OsgEarthNet.uav[41] utilizationEnergyOverdrawMission 0
scalar OsgEarthNet.uav[41] utilizationEnergyOverdrawMaintenance 0
scalar OsgEarthNet.uav[41] utilizationCountMissions 42
scalar OsgEarthNet.uav[41] utilizationCountManeuversMission 685
scalar OsgEarthNet.uav[41] utilizationCountManeuversMaintenance 85
scalar OsgEarthNet.uav[41] utilizationCountChargeState 42
scalar OsgEarthNet.uav[41] utilizationCountOverdrawnAfterMission 0
scalar OsgEarthNet.uav[41] utilizationCountIdleState 43
scalar OsgEarthNet.uav[41] utilizationFail 0
scalar OsgEarthNet.uav[41] simulationTime 259200
scalar OsgEarthNet.uav[42] utilizationSecMission 40730.107674317
scalar OsgEarthNet.uav[42] utilizationSecMaintenance 16184.956446585
scalar OsgEarthNet.uav[42] utilizationSecCharge 195232.9308791
scalar OsgEarthNet.uav[42] utilizationSecIdle 7052.004
scalar OsgEarthNet.uav[42] utilizationEnergyMission 193291.38214111
scalar OsgEarthNet.uav[42] utilizationEnergyMaintenance 74668.342933655
scalar OsgEarthNet.uav[42] utilizationEnergyCharge 267326.49951172
scalar OsgEarthNet.uav[42] utilizationEnergyOverdrawMission 0
scalar OsgEarthNet.uav[42] utilizationEnergyOverdrawMaintenance 0
scalar OsgEarthNet.uav[42] utilizationCountMissions 58
scalar OsgEarthNet.uav[42] utilizationCountManeuversMission 1174
scalar OsgEarthNet.uav[42] utilizationCountManeuversMaintenance 116
scalar OsgEarthNet.uav[42] utilizationCountChargeState 58
scalar OsgEarthNet.uav[42] utilizationCountOverdrawnAfterMission 0
scalar OsgEarthNet.uav[42] utilizationCountIdleState 27
scalar OsgEarthNet.uav[42] utilizationFail 0
scalar OsgEarthNet.uav[42] simulationTime 259200
scalar OsgEarthNet.uav[43] utilizationSecMission 13034.118029311
scalar OsgEarthNet.uav[43] utilizationSecMaintenance 9078.8007225437
scalar OsgEarthNet.uav[43] utilizationSecCharge 83610
scalar OsgEarthNet.uav[43] utilizationSecIdle 153477.08024814
scalar OsgEarthNet.uav[43] utilizationEnergyMission 64415.918621063
scalar OsgEarthNet.uav[43] utilizationEnergyMaintenance 43132.416778564
scalar OsgEarthNet.uav[43] utilizationEnergyCharge 107252.47070312
scalar OsgEarthNet.uav[43] utilizationEnergyOverdrawMission 0
scalar OsgEarthNet.uav[43] utilizationEnergyOverdrawMaintenance 0
scalar OsgEarthNet.uav[43] utilizationCountMissions 24
scalar OsgEarthNet.uav[43] utilizationCountManeuversMission 474
scalar OsgEarthNet.uav[43] utilizationCountManeuversMaintenance 48
scalar OsgEarthNet.uav[43] utilizationCountChargeState 24
scalar OsgEarthNet.uav[43] utilizationCountOverdrawnAfterMission 0
scalar OsgEarthNet.uav[43] utilizationCountIdleState 25
scalar OsgEarthNet.uav[43] utilizationFail 0
scalar OsgEarthNet.uav[43] simulationTime 259200
scalar OsgEarthNet.uav[44] utilizationSecMission 34934.857772296
scalar OsgEarthNet.uav[44] utilizationSecMaintenance 17167.91762227
scalar OsgEarthNet.uav[44] utilizationSecCharge 184135.20960543
scalar OsgEarthNet.uav[44] utilizationSecIdle 22962.014
scalar OsgEarthNet.uav[44] utilizationEnergyMission 172578.65717697
scalar OsgEarthNet.uav[44] utilizationEnergyMaintenance 78830.860645294
scalar OsgEarthNet.uav[44] utilizationEnergyCharge 248324.84375
scalar OsgEarthNet.uav[44] utilizationEnergyOverdrawMission 0
scalar OsgEarthNet.uav[44] utilizationEnergyOverdrawMaintenance 0
scalar OsgEarthNet.uav[44] utilizationCountMissions 55
scalar OsgEarthNet.uav[44] utilizationCountManeuversMission 1102
scalar OsgEarthNet.uav[44] utilizationCountManeuversMaintenance 110
scalar OsgEarthNet.uav[44] utilizationCountChargeState 55
scalar OsgEarthNet.uav[44] utilizationCountOverdrawnAfterMission 0
scalar OsgEarthNet.uav[44] utilizationCountIdleState 28
scalar OsgEarthNet.uav[44] utilizationFail 0
scalar OsgEarthNet.uav[44] simulationTime 259200
scalar OsgEarthNet.uav[45] utilizationSecMission 39610.081011769
scalar OsgEarthNet.uav[45] utilizationSecMaintenance 17842.708835385
scalar OsgEarthNet.uav[45] utilizationSecCharge 199535.20915285
scalar OsgEarthNet.uav[45] utilizationSecIdle 2212
scalar OsgEarthNet.uav[45] utilizationEnergyMission 192193.3213768
scalar OsgEarthNet.uav[45] utilizationEnergyMaintenance 81946.277942658
scalar OsgEarthNet.uav[45] utilizationEnergyCharge 276987.03369141
scalar OsgEarthNet.uav[45] utilizationEnergyOverdrawMission 0
scalar OsgEarthNet.uav[45] utilizationEnergyOverdrawMaintenance 0
scalar OsgEarthNet.uav[45] utilizationCountMissions 60
scalar OsgEarthNet.uav[45] utilizationCountManeuversMission 1179
scalar OsgEarthNet.uav[45] utilizationCountManeuversMaintenance 120
scalar OsgEarthNet.uav[45] utilizationCountChargeState 60
scalar OsgEarthNet.uav[45] utilizationCountOverdrawnAfterMission 0
scalar OsgEarthNet.uav[45] utilizationCountIdleState 17
scalar OsgEarthNet.uav[45] utilizationFail 0
scalar OsgEarthNet.uav[45] simulationTime 259200
scalar OsgEarthNet.uav[46] utilizationSecMission 13495.993487052
scalar OsgEarthNet.uav[46] utilizationSecMaintenance 7955.9997675232
scalar OsgEarthNet.uav[46] utilizationSecCharge 80010
scalar OsgEarthNet.uav[46] utilizationSecIdle 157738.00574542
scalar OsgEarthNet.uav[46] utilizationEnergyMission 65787.394641876
scalar OsgEarthNet.uav[46] utilizationEnergyMaintenance 37762.50938797
scalar OsgEarthNet.uav[46] utilizationEnergyCharge 102562.83642578
scalar OsgEarthNet.uav[46] utilizationEnergyOverdrawMission 0
scalar OsgEarthNet.uav[46] utilizationEnergyOverdrawMaintenance 0
scalar OsgEarthNet.uav[46] utilizationCountMissions 23
scalar OsgEarthNet.uav[46] utilizationCountManeuversMission 419
scalar OsgEarthNet.uav[46] utilizationCountManeuversMaintenance 46
scalar OsgEarthNet.uav[46] utilizationCountChargeState 23
scalar OsgEarthNet.uav[46] utilizationCountOverdrawnAfterMission 0
scalar OsgEarthNet.uav[46] utilizationCountIdleState 24
scalar OsgEarthNet.uav[46] utilizationFail 0
scalar OsgEarthNet.uav[46] simulationTime 259200
scalar OsgEarthNet.uav[47] utilizationSecMission 18881.972875281
scalar OsgEarthNet.uav[47] utilizationSecMaintenance 14716.018124719
scalar OsgEarthNet.uav[47] utilizationSecCharge 132410
scalar OsgEarthNet.uav[47] utilizationSecIdle 93192.008
scalar OsgEarthNet.uav[47] utilizationEnergyMission 94877.069000066
scalar OsgEarthNet.uav[47] utilizationEnergyMaintenance 69745.443637848
scalar OsgEarthNet.uav[47] utilizationEnergyCharge 163018.23120117
scalar OsgEarthNet.uav[47] utilizationEnergyOverdrawMission 0
scalar OsgEarthNet.uav[47] utilizationEnergyOverdrawMaintenance 0
scalar OsgEarthNet.uav[47] utilizationCountMissions 42
scalar OsgEarthNet.uav[47] utilizationCountManeuversMission 713
scalar OsgEarthNet.uav[47] utilizationCountManeuversMaintenance 85
scalar OsgEarthNet.uav[47] utilizationCountChargeState 42
scalar OsgEarthNet.uav[47] utilizationCountOverdrawnAfterMission 0
scalar OsgEarthNet.uav[47] utilizationCountIdleState 43
scalar OsgEarthNet.uav[47] utilizationFail 0
scalar OsgEarthNet.uav[47] simulationTime 259200
scalar OsgEarthNet.uav[48] utilizationSecMission 41596.193064814
scalar OsgEarthNet.uav[48] utilizationSecMaintenance 16168.350281783
scalar OsgEarthNet.uav[48] utilizationSecCharge 196770
scalar OsgEarthNet.uav[48] utilizationSecIdle 4665.4556534032
scalar OsgEarthNet.uav[48] utilizationEnergyMission 200673.23358536
scalar OsgEarthNet.uav[48] utilizationEnergyMaintenance 73600.293936018
scalar OsgEarthNet.uav[48] utilizationEnergyCharge 268219.85253906
scalar OsgEarthNet.uav[48] utilizationEnergyOverdrawMission 0
scalar OsgEarthNet.uav[48] utilizationEnergyOverdrawMaintenance 0
scalar OsgEarthNet.uav[48] utilizationCountMissions 59
scalar OsgEarthNet.uav[48] utilizationCountManeuversMission 1184
scalar OsgEarthNet.uav[48] utilizationCountManeuversMaintenance 118
scalar OsgEarthNet.uav[48] utilizationCountChargeState 58
scalar OsgEarthNet.uav[48] utilizationCountOverdrawnAfterMission 0
scalar OsgEarthNet.uav[48] utilizationCountIdleState 24
scalar OsgEarthNet.uav[48] utilizationFail 0
scalar OsgEarthNet.uav[48] simulationTime 259200
scalar OsgEarthNet.uav[49] utilizationSecMission 13595.993487052
scalar OsgEarthNet.uav[49] utilizationSecMaintenance 7878.6324455541
scalar OsgEarthNet.uav[49] utilizationSecCharge 80630
scalar OsgEarthNet.uav[49] utilizationSecIdle 157095.37306739
scalar OsgEarthNet.uav[49] utilizationEnergyMission 66364.509479523
scalar OsgEarthNet.uav[49] utilizationEnergyMaintenance 37399.542541504
scalar OsgEarthNet.uav[49] utilizationEnergyCharge 103736.87304688
scalar OsgEarthNet.uav[49] utilizationEnergyOverdrawMission 0
scalar OsgEarthNet.uav[49] utilizationEnergyOverdrawMaintenance 0
scalar OsgEarthNet.uav[49] utilizationCountMissions 23
scalar OsgEarthNet.uav[49] utilizationCountManeuversMission 424
scalar OsgEarthNet.uav[49] utilizationCountManeuversMaintenance 46
scalar OsgEarthNet.uav[49] utilizationCountChargeState 23
scalar OsgEarthNet.uav[49] utilizationCountOverdrawnAfterMission 0
scalar OsgEarthNet.uav[49] utilizationCountIdleState 24
scalar OsgEarthNet.uav[49] utilizationFail 0
scalar OsgEarthNet.uav[49] simulationTime 259200
scalar OsgEarthNet.uav[50] utilizationSecMission 11083.750915482
scalar OsgEarthNet.uav[50] utilizationSecMaintenance 7432.8913306738
scalar OsgEarthNet.uav[50] utilizationSecCharge 70230
scalar OsgEarthNet.uav[50] utilizationSecIdle 170453.35675384
scalar OsgEarthNet.uav[50] utilizationEnergyMission 54813.58581543
scalar OsgEarthNet.uav[50] utilizationEnergyMaintenance 35423.5585289
scalar OsgEarthNet.uav[50] utilizationEnergyCharge 90250.635253906
scalar OsgEarthNet.uav[50] utilizationEnergyOverdrawMission 0
scalar OsgEarthNet.uav[50] utilizationEnergyOverdrawMaintenance 0
scalar OsgEarthNet.uav[50] utilizationCountMissions 20
scalar OsgEarthNet.uav[50] utilizationCountManeuversMission 398
scalar OsgEarthNet.uav[50] utilizationCountManeuversMaintenance 40
scalar OsgEarthNet.uav[50] utilizationCountChargeState 20
scalar OsgEarthNet.uav[50] utilizationCountOverdrawnAfterMission 0
scalar OsgEarthNet.uav[50] utilizationCountIdleState 21
scalar OsgEarthNet.uav[50] utilizationFail 0
scalar OsgEarthNet.uav[50] simulationTime 259200
scalar OsgEarthNet.uav[51] utilizationSecMission 20247.785703646
scalar OsgEarthNet.uav[51] utilizationSecMaintenance 12709.190105793
scalar OsgEarthNet.uav[51] utilizationSecCharge 126460
scalar OsgEarthNet.uav[51] utilizationSecIdle 99783.023190561
scalar OsgEarthNet.uav[51] utilizationEnergyMission 97575.233818054
scalar OsgEarthNet.uav[51] utilizationEnergyMaintenance 59911.817016602
scalar OsgEarthNet.uav[51] utilizationEnergyCharge 157532.82055664
scalar OsgEarthNet.uav[51] utilizationEnergyOverdrawMission 0
scalar OsgEarthNet.uav[51] utilizationEnergyOverdrawMaintenance 0
scalar OsgEarthNet.uav[51] utilizationCountMissions 39
scalar OsgEarthNet.uav[51] utilizationCountManeuversMission 589
scalar OsgEarthNet.uav[51] utilizationCountManeuversMaintenance 78
scalar OsgEarthNet.uav[51] utilizationCountChargeState 39
scalar OsgEarthNet.uav[51] utilizationCountOverdrawnAfterMission 0
scalar OsgEarthNet.uav[51] utilizationCountIdleState 40
scalar OsgEarthNet.uav[51] utilizationFail 0
scalar OsgEarthNet.uav[51] simulationTime 259200
scalar OsgEarthNet.uav[52] utilizationSecMission 39185.623023642
scalar OsgEarthNet.uav[52] utilizationSecMaintenance 18498.548386943
scalar OsgEarthNet.uav[52] utilizationSecCharge 197326.6079755
scalar OsgEarthNet.uav[52] utilizationSecIdle 4189.2196139157
scalar OsgEarthNet.uav[52] utilizationEnergyMission 189985.89226151
scalar OsgEarthNet.uav[52] utilizationEnergyMaintenance 86214.890670776
scalar OsgEarthNet.uav[52] utilizationEnergyCharge 271113.45391846
scalar OsgEarthNet.uav[52] utilizationEnergyOverdrawMission 0
scalar OsgEarthNet.uav[52] utilizationEnergyOverdrawMaintenance 0
scalar OsgEarthNet.uav[52] utilizationCountMissions 60
scalar OsgEarthNet.uav[52] utilizationCountManeuversMission 1245
scalar OsgEarthNet.uav[52] utilizationCountManeuversMaintenance 120
scalar OsgEarthNet.uav[52] utilizationCountChargeState 60
scalar OsgEarthNet.uav[52] utilizationCountOverdrawnAfterMission 0
scalar OsgEarthNet.uav[52] utilizationCountIdleState 19
scalar OsgEarthNet.uav[52] utilizationFail 0
scalar OsgEarthNet.uav[52] simulationTime 259200
scalar OsgEarthNet.uav[53] utilizationSecMission 12548.225362161
scalar OsgEarthNet.uav[53] utilizationSecMaintenance 7129.7556378394
scalar OsgEarthNet.uav[53] utilizationSecCharge 73620
scalar OsgEarthNet.uav[53] utilizationSecIdle 165902.018
scalar OsgEarthNet.uav[53] utilizationEnergyMission 61444.682439147
scalar OsgEarthNet.uav[53] utilizationEnergyMaintenance 33995.775447845
scalar OsgEarthNet.uav[53] utilizationEnergyCharge 94501.873046875
scalar OsgEarthNet.uav[53] utilizationEnergyOverdrawMission 0
scalar OsgEarthNet.uav[53] utilizationEnergyOverdrawMaintenance 0
scalar OsgEarthNet.uav[53] utilizationCountMissions 21
scalar OsgEarthNet.uav[53] utilizationCountManeuversMission 368
scalar OsgEarthNet.uav[53] utilizationCountManeuversMaintenance 43
scalar OsgEarthNet.uav[53] utilizationCountChargeState 21
scalar OsgEarthNet.uav[53] utilizationCountOverdrawnAfterMission 0
scalar OsgEarthNet.uav[53] utilizationCountIdleState 22
scalar OsgEarthNet.uav[53] utilizationFail 0
scalar OsgEarthNet.uav[53] simulationTime 259200
scalar OsgEarthNet.uav[54] utilizationSecMission 20183.500981245
scalar OsgEarthNet.uav[54] utilizationSecMaintenance 14018.165283789
scalar OsgEarthNet.uav[54] utilizationSecCharge 132186.32973497
scalar OsgEarthNet.uav[54] utilizationSecIdle 92812.003
scalar OsgEarthNet.uav[54] utilizationEnergyMission 99683.662593842
scalar OsgEarthNet.uav[54] utilizationEnergyMaintenance 66202.057353973
scalar OsgEarthNet.uav[54] utilizationEnergyCharge 165351.47949219
scalar OsgEarthNet.uav[54] utilizationEnergyOverdrawMission 0
scalar OsgEarthNet.uav[54] utilizationEnergyOverdrawMaintenance 0
scalar OsgEarthNet.uav[54] utilizationCountMissions 41
scalar OsgEarthNet.uav[54] utilizationCountManeuversMission 711
scalar OsgEarthNet.uav[54] utilizationCountManeuversMaintenance 82
scalar OsgEarthNet.uav[54] utilizationCountChargeState 41
scalar OsgEarthNet.uav[54] utilizationCountOverdrawnAfterMission 0
scalar OsgEarthNet.uav[54] utilizationCountIdleState 41
scalar OsgEarthNet.uav[54] utilizationFail 0
scalar OsgEarthNet.uav[54] simulationTime 259200
scalar OsgEarthNet.uav[55] utilizationSecMission 40750.715271407
scalar OsgEarthNet.uav[55] utilizationSecMaintenance 16381.262294065
scalar OsgEarthNet.uav[55] utilizationSecCharge 195660
scalar OsgEarthNet.uav[55] utilizationSecIdle 6408.0214345277
scalar OsgEarthNet.uav[55] utilizationEnergyMission 193912.94327927
scalar OsgEarthNet.uav[55] utilizationEnergyMaintenance 75127.116653442
scalar OsgEarthNet.uav[55] utilizationEnergyCharge 268055.10351562
scalar OsgEarthNet.uav[55] utilizationEnergyOverdrawMission 0
scalar OsgEarthNet.uav[55] utilizationEnergyOverdrawMaintenance 0
scalar OsgEarthNet.uav[55] utilizationCountMissions 58
scalar OsgEarthNet.uav[55] utilizationCountManeuversMission 1084
scalar OsgEarthNet.uav[55] utilizationCountManeuversMaintenance 116
scalar OsgEarthNet.uav[55] utilizationCountChargeState 58
scalar OsgEarthNet.uav[55] utilizationCountOverdrawnAfterMission 0
scalar OsgEarthNet.uav[55] utilizationCountIdleState 24
scalar OsgEarthNet.uav[55] utilizationFail 0
scalar OsgEarthNet.uav[55] simulationTime 259200
scalar OsgEarthNet.uav[56] utilizationSecMission 11105.001220642
scalar OsgEarthNet.uav[56] utilizationSecMaintenance 6729.0392157622
scalar OsgEarthNet.uav[56] utilizationSecCharge 66760
scalar OsgEarthNet.uav[56] utilizationSecIdle 174605.9585636
scalar OsgEarthNet.uav[56] utilizationEnergyMission 52762.939460754
scalar OsgEarthNet.uav[56] utilizationEnergyMaintenance 31997.006443024
scalar OsgEarthNet.uav[56] utilizationEnergyCharge 85846.05859375
scalar OsgEarthNet.uav[56] utilizationEnergyOverdrawMission 0
scalar OsgEarthNet.uav[56] utilizationEnergyOverdrawMaintenance 0
scalar OsgEarthNet.uav[56] utilizationCountMissions 19
scalar OsgEarthNet.uav[56] utilizationCountManeuversMission 347
scalar OsgEarthNet.uav[56] utilizationCountManeuversMaintenance 38
scalar OsgEarthNet.uav[56] utilizationCountChargeState 19
scalar OsgEarthNet.uav[56] utilizationCountOverdrawnAfterMission 0
scalar OsgEarthNet.uav[56] utilizationCountIdleState 20
scalar OsgEarthNet.uav[56] utilizationFail 0
scalar OsgEarthNet.uav[56] simulationTime 259200
scalar OsgEarthNet.uav[57] utilizationSecMission 28682.044490778
scalar OsgEarthNet.uav[57] utilizationSecMaintenance 17221.835179801
scalar OsgEarthNet.uav[57] utilizationSecCharge 170571.5074399
scalar OsgEarthNet.uav[57] utilizationSecIdle 42724.611889516
scalar OsgEarthNet.uav[57] utilizationEnergyMission 138587.25041962
scalar OsgEarthNet.uav[57] utilizationEnergyMaintenance 80784.585853577
scalar OsgEarthNet.uav[57] utilizationEnergyCharge 218356.81298828
scalar OsgEarthNet.uav[57] utilizationEnergyOverdrawMission 0
scalar OsgEarthNet.uav[57] utilizationEnergyOverdrawMaintenance 0
scalar OsgEarthNet.uav[57] utilizationCountMissions 53
scalar OsgEarthNet.uav[57] utilizationCountManeuversMission 844
scalar OsgEarthNet.uav[57] utilizationCountManeuversMaintenance 106
scalar OsgEarthNet.uav[57] utilizationCountChargeState 53
scalar OsgEarthNet.uav[57] utilizationCountOverdrawnAfterMission 0
scalar OsgEarthNet.uav[57] utilizationCountIdleState 41
scalar OsgEarthNet.uav[57] utilizationFail 0
scalar OsgEarthNet.uav[57] simulationTime 259200
scalar OsgEarthNet.uav[58] utilizationSecMission 40055.618760158
scalar OsgEarthNet.uav[58] utilizationSecMaintenance 16520.802565753
scalar OsgEarthNet.uav[58] utilizationSecCharge 195580.05234286
scalar OsgEarthNet.uav[58] utilizationSecIdle 7043.5253312322
scalar OsgEarthNet.uav[58] utilizationEnergyMission 193547.74032974
scalar OsgEarthNet.uav[58] utilizationEnergyMaintenance 76099.076087952
scalar OsgEarthNet.uav[58] utilizationEnergyCharge 268049.71630859
scalar OsgEarthNet.uav[58] utilizationEnergyOverdrawMission 0
scalar OsgEarthNet.uav[58] utilizationEnergyOverdrawMaintenance 0
scalar OsgEarthNet.uav[58] utilizationCountMissions 58
scalar OsgEarthNet.uav[58] utilizationCountManeuversMission 1141
scalar OsgEarthNet.uav[58] utilizationCountManeuversMaintenance 116
scalar OsgEarthNet.uav[58] utilizationCountChargeState 58
scalar OsgEarthNet.uav[58] utilizationCountOverdrawnAfterMission 0
scalar OsgEarthNet.uav[58] utilizationCountIdleState 25
scalar OsgEarthNet.uav[58] utilizationFail 0
scalar OsgEarthNet.uav[58] simulationTime 259200
scalar OsgEarthNet.uav[59] utilizationSecMission 14055.993487052
scalar OsgEarthNet.uav[59] utilizationSecMaintenance 8326.0641724038
scalar OsgEarthNet.uav[59] utilizationSecCharge 81195.938340544
scalar OsgEarthNet.uav[59] utilizationSecIdle 155622.003
scalar OsgEarthNet.uav[59] utilizationEnergyMission 69161.656841278
scalar OsgEarthNet.uav[59] utilizationEnergyMaintenance 39701.377910614
scalar OsgEarthNet.uav[59] utilizationEnergyCharge 104876.5645752
scalar OsgEarthNet.uav[59] utilizationEnergyOverdrawMission 0
scalar OsgEarthNet.uav[59] utilizationEnergyOverdrawMaintenance 0
scalar OsgEarthNet.uav[59] utilizationCountMissions 24
scalar OsgEarthNet.uav[59] utilizationCountManeuversMission 447
scalar OsgEarthNet.uav[59] utilizationCountManeuversMaintenance 48
scalar OsgEarthNet.uav[59] utilizationCountChargeState 24
scalar OsgEarthNet.uav[59] utilizationCountOverdrawnAfterMission 0
scalar OsgEarthNet.uav[59] utilizationCountIdleState 24
scalar OsgEarthNet.uav[59] utilizationFail 0
scalar OsgEarthNet.uav[59] simulationTime 259200
scalar OsgEarthNet.uav[60] utilizationSecMission 15865.001220642
scalar OsgEarthNet.uav[60] utilizationSecMaintenance 11125.98916229
scalar OsgEarthNet.uav[60] utilizationSecCharge 101327.00761707
scalar OsgEarthNet.uav[60] utilizationSecIdle 130882.001
scalar OsgEarthNet.uav[60] utilizationEnergyMission 77886.729263306
scalar OsgEarthNet.uav[60] utilizationEnergyMaintenance 53120.100532532
scalar OsgEarthNet.uav[60] utilizationEnergyCharge 131660.47021484
scalar OsgEarthNet.uav[60] utilizationEnergyOverdrawMission 0
scalar OsgEarthNet.uav[60] utilizationEnergyOverdrawMaintenance 0
scalar OsgEarthNet.uav[60] utilizationCountMissions 29
scalar OsgEarthNet.uav[60] utilizationCountManeuversMission 585
scalar OsgEarthNet.uav[60] utilizationCountManeuversMaintenance 58
scalar OsgEarthNet.uav[60] utilizationCountChargeState 29
scalar OsgEarthNet.uav[60] utilizationCountOverdrawnAfterMission 0
scalar OsgEarthNet.uav[60] utilizationCountIdleState 29
scalar OsgEarthNet.uav[60] utilizationFail 0
scalar OsgEarthNet.uav[60] simulationTime 259200
scalar OsgEarthNet.uav[61] utilizationSecMission 23004.208066695
scalar OsgEarthNet.uav[61] utilizationSecMaintenance 16123.43108585
scalar OsgEarthNet.uav[61] utilizationSecCharge 150261.39586178
scalar OsgEarthNet.uav[61] utilizationSecIdle 69810.963985674
scalar OsgEarthNet.uav[61] utilizationEnergyMission 111684.90773392
scalar OsgEarthNet.uav[61] utilizationEnergyMaintenance 76572.111553192
scalar OsgEarthNet.uav[61] utilizationEnergyCharge 186189.14111328
scalar OsgEarthNet.uav[61] utilizationEnergyOverdrawMission 0
scalar OsgEarthNet.uav[61] utilizationEnergyOverdrawMaintenance 0
scalar OsgEarthNet.uav[61] utilizationCountMissions 48
scalar OsgEarthNet.uav[61] utilizationCountManeuversMission 756
scalar OsgEarthNet.uav[61] utilizationCountManeuversMaintenance 96
scalar OsgEarthNet.uav[61] utilizationCountChargeState 48
scalar OsgEarthNet.uav[61] utilizationCountOverdrawnAfterMission 0
scalar OsgEarthNet.uav[61] utilizationCountIdleState 48
scalar OsgEarthNet.uav[61] utilizationFail 0
scalar OsgEarthNet.uav[61] simulationTime 259200
scalar OsgEarthNet.uav[62] utilizationSecMission 40252.498536173
scalar OsgEarthNet.uav[62] utilizationSecMaintenance 17002.359371792
scalar OsgEarthNet.uav[62] utilizationSecCharge 195664.43303495
scalar OsgEarthNet.uav[62] utilizationSecIdle 6280.7080570899
scalar OsgEarthNet.uav[62] utilizationEnergyMission 192822.8339119
scalar OsgEarthNet.uav[62] utilizationEnergyMaintenance 78269.974811554
scalar OsgEarthNet.uav[62] utilizationEnergyCharge 269249.78283691
scalar OsgEarthNet.uav[62] utilizationEnergyOverdrawMission 0
scalar OsgEarthNet.uav[62] utilizationEnergyOverdrawMaintenance 0
scalar OsgEarthNet.uav[62] utilizationCountMissions 59
scalar OsgEarthNet.uav[62] utilizationCountManeuversMission 1141
scalar OsgEarthNet.uav[62] utilizationCountManeuversMaintenance 118
scalar OsgEarthNet.uav[62] utilizationCountChargeState 59
scalar OsgEarthNet.uav[62] utilizationCountOverdrawnAfterMission 0
scalar OsgEarthNet.uav[62] utilizationCountIdleState 22
scalar OsgEarthNet.uav[62] utilizationFail 0
scalar OsgEarthNet.uav[62] simulationTime 259200
scalar OsgEarthNet.uav[63] utilizationSecMission 12955.884411973
scalar OsgEarthNet.uav[63] utilizationSecMaintenance 7696.6295578711
scalar OsgEarthNet.uav[63] utilizationSecCharge 76715.480030156
scalar OsgEarthNet.uav[63] utilizationSecIdle 161832.005
scalar OsgEarthNet.uav[63] utilizationEnergyMission 62382.164978027
scalar OsgEarthNet.uav[63] utilizationEnergyMaintenance 36401.316566467
scalar OsgEarthNet.uav[63] utilizationEnergyCharge 99295.725097656
scalar OsgEarthNet.uav[63] utilizationEnergyOverdrawMission 0
scalar OsgEarthNet.uav[63] utilizationEnergyOverdrawMaintenance 0
scalar OsgEarthNet.uav[63] utilizationCountMissions 22
scalar OsgEarthNet.uav[63] utilizationCountManeuversMission 409
scalar OsgEarthNet.uav[63] utilizationCountManeuversMaintenance 44
scalar OsgEarthNet.uav[63] utilizationCountChargeState 22
scalar OsgEarthNet.uav[63] utilizationCountOverdrawnAfterMission 0
scalar OsgEarthNet.uav[63] utilizationCountIdleState 22
scalar OsgEarthNet.uav[63] utilizationFail 0
scalar OsgEarthNet.uav[63] simulationTime 259200
scalar OsgEarthNet.uav[64] utilizationSecMission 21693.046546128
scalar OsgEarthNet.uav[64] utilizationSecMaintenance 14815.264602126
scalar OsgEarthNet.uav[64] utilizationSecCharge 139739.67485175
scalar OsgEarthNet.uav[64] utilizationSecIdle 82952.013
scalar OsgEarthNet.uav[64] utilizationEnergyMission 107430.78762817
scalar OsgEarthNet.uav[64] utilizationEnergyMaintenance 70124.298526764
scalar OsgEarthNet.uav[64] utilizationEnergyCharge 175522.07714844
scalar OsgEarthNet.uav[64] utilizationEnergyOverdrawMission 0
scalar OsgEarthNet.uav[64] utilizationEnergyOverdrawMaintenance 0
scalar OsgEarthNet.uav[64] utilizationCountMissions 43
scalar OsgEarthNet.uav[64] utilizationCountManeuversMission 772
scalar OsgEarthNet.uav[64] utilizationCountManeuversMaintenance 86
scalar OsgEarthNet.uav[64] utilizationCountChargeState 43
scalar OsgEarthNet.uav[64] utilizationCountOverdrawnAfterMission 0
scalar OsgEarthNet.uav[64] utilizationCountIdleState 43
scalar OsgEarthNet.uav[64] utilizationFail 0
scalar OsgEarthNet.uav[64] simulationTime 259200
scalar OsgEarthNet.uav[65] utilizationSecMission 40144.517972284
scalar OsgEarthNet.uav[65] utilizationSecMaintenance 15928.032770756
scalar OsgEarthNet.uav[65] utilizationSecCharge 195335.44225696
[...]
scalar OsgEarthNet.uav[130] utilizationSecIdle 259199.999
scalar OsgEarthNet.uav[130] utilizationEnergyMission 0
scalar OsgEarthNet.uav[130] utilizationEnergyMaintenance 0
scalar OsgEarthNet.uav[130] utilizationEnergyCharge 0
scalar OsgEarthNet.uav[130] utilizationEnergyOverdrawMission 0
scalar OsgEarthNet.uav[130] utilizationEnergyOverdrawMaintenance 0
scalar OsgEarthNet.uav[130] utilizationCountMissions 0
scalar OsgEarthNet.uav[130] utilizationCountManeuversMission 0
scalar OsgEarthNet.uav[130] utilizationCountManeuversMaintenance 0
scalar OsgEarthNet.uav[130] utilizationCountChargeState 0
scalar OsgEarthNet.uav[130] utilizationCountOverdrawnAfterMission 0
scalar OsgEarthNet.uav[130] utilizationCountIdleState 1
scalar OsgEarthNet.uav[130] utilizationFail 0
scalar OsgEarthNet.uav[130] simulationTime 259200
scalar OsgEarthNet.uav[131] utilizationSecMission 0
scalar OsgEarthNet.uav[131] utilizationSecMaintenance 0
scalar OsgEarthNet.uav[131] utilizationSecCharge 0
scalar OsgEarthNet.uav[131] utilizationSecIdle 259199.999
scalar OsgEarthNet.uav[131] utilizationEnergyMission 0
scalar OsgEarthNet.uav[131] utilizationEnergyMaintenance 0
scalar OsgEarthNet.uav[131] utilizationEnergyCharge 0
scalar OsgEarthNet.uav[131] utilizationEnergyOverdrawMission 0
scalar OsgEarthNet.uav[131] utilizationEnergyOverdrawMaintenance 0
scalar OsgEarthNet.uav[131] utilizationCountMissions 0
scalar OsgEarthNet.uav[131] utilizationCountManeuversMission 0
scalar OsgEarthNet.uav[131] utilizationCountManeuversMaintenance 0
scalar OsgEarthNet.uav[131] utilizationCountChargeState 0
scalar OsgEarthNet.uav[131] utilizationCountOverdrawnAfterMission 0
scalar OsgEarthNet.uav[131] utilizationCountIdleState 1
scalar OsgEarthNet.uav[131] utilizationFail 0
scalar OsgEarthNet.uav[131] simulationTime 259200
scalar OsgEarthNet.uav[132] utilizationSecMission 0
scalar OsgEarthNet.uav[132] utilizationSecMaintenance 0
scalar OsgEarthNet.uav[132] utilizationSecCharge 0
scalar OsgEarthNet.uav[132] utilizationSecIdle 259199.999
scalar OsgEarthNet.uav[132] utilizationEnergyMission 0
scalar OsgEarthNet.uav[132] utilizationEnergyMaintenance 0
scalar OsgEarthNet.uav[132] utilizationEnergyCharge 0
scalar OsgEarthNet.uav[132] utilizationEnergyOverdrawMission 0
scalar OsgEarthNet.uav[132] utilizationEnergyOverdrawMaintenance 0
scalar OsgEarthNet.uav[132] utilizationCountMissions 0
scalar OsgEarthNet.uav[132] utilizationCountManeuversMission 0
scalar OsgEarthNet.uav[132] utilizationCountManeuversMaintenance 0
scalar OsgEarthNet.uav[132] utilizationCountChargeState 0
scalar OsgEarthNet.uav[132] utilizationCountOverdrawnAfterMission 0
scalar OsgEarthNet.uav[132] utilizationCountIdleState 1
scalar OsgEarthNet.uav[132] utilizationFail 0
scalar OsgEarthNet.uav[132] simulationTime 259200
scalar OsgEarthNet.uav[133] utilizationSecMission 0
scalar OsgEarthNet.uav[133] utilizationSecMaintenance 0
scalar OsgEarthNet.uav[133] utilizationSecCharge 0
scalar OsgEarthNet.uav[133] utilizationSecIdle 259199.999
scalar OsgEarthNet.uav[133] utilizationEnergyMission 0
scalar OsgEarthNet.uav[133] utilizationEnergyMaintenance 0
scalar OsgEarthNet.uav[133] utilizationEnergyCharge 0
scalar OsgEarthNet.uav[133] utilizationEnergyOverdrawMission 0
scalar OsgEarthNet.uav[133] utilizationEnergyOverdrawMaintenance 0
scalar OsgEarthNet.uav[133] utilizationCountMissions 0
scalar OsgEarthNet.uav[133] utilizationCountManeuversMission 0
scalar OsgEarthNet.uav[133] utilizationCountManeuversMaintenance 0
scalar OsgEarthNet.uav[133] utilizationCountChargeState 0
scalar OsgEarthNet.uav[133] utilizationCountOverdrawnAfterMission 0
scalar OsgEarthNet.uav[133] utilizationCountIdleState 1
scalar OsgEarthNet.uav[133] utilizationFail 0
scalar OsgEarthNet.uav[133] simulationTime 259200
scalar OsgEarthNet.uav[134] utilizationSecMission 0
scalar OsgEarthNet.uav[134] utilizationSecMaintenance 0
scalar OsgEarthNet.uav[134] utilizationSecCharge 0
scalar OsgEarthNet.uav[134] utilizationSecIdle 259199.999
scalar OsgEarthNet.uav[134] utilizationEnergyMission 0
scalar OsgEarthNet.uav[134] utilizationEnergyMaintenance 0
scalar OsgEarthNet.uav[134] utilizationEnergyCharge 0
scalar OsgEarthNet.uav[134] utilizationEnergyOverdrawMission 0
scalar OsgEarthNet.uav[134] utilizationEnergyOverdrawMaintenance 0
scalar OsgEarthNet.uav[134] utilizationCountMissions 0
scalar OsgEarthNet.uav[134] utilizationCountManeuversMission 0
scalar OsgEarthNet.uav[134] utilizationCountManeuversMaintenance 0
scalar OsgEarthNet.uav[134] utilizationCountChargeState 0
scalar OsgEarthNet.uav[134] utilizationCountOverdrawnAfterMission 0
scalar OsgEarthNet.uav[134] utilizationCountIdleState 1
scalar OsgEarthNet.uav[134] utilizationFail 0
scalar OsgEarthNet.uav[134] simulationTime 259200
scalar OsgEarthNet.uav[135] utilizationSecMission 0
scalar OsgEarthNet.uav[135] utilizationSecMaintenance 0
scalar OsgEarthNet.uav[135] utilizationSecCharge 0
scalar OsgEarthNet.uav[135] utilizationSecIdle 259199.999
scalar OsgEarthNet.uav[135] utilizationEnergyMission 0
scalar OsgEarthNet.uav[135] utilizationEnergyMaintenance 0
scalar OsgEarthNet.uav[135] utilizationEnergyCharge 0
scalar OsgEarthNet.uav[135] utilizationEnergyOverdrawMission 0
scalar OsgEarthNet.uav[135] utilizationEnergyOverdrawMaintenance 0
scalar OsgEarthNet.uav[135] utilizationCountMissions 0
scalar OsgEarthNet.uav[135] utilizationCountManeuversMission 0
scalar OsgEarthNet.uav[135] utilizationCountManeuversMaintenance 0
scalar OsgEarthNet.uav[135] utilizationCountChargeState 0
scalar OsgEarthNet.uav[135] utilizationCountOverdrawnAfterMission 0
scalar OsgEarthNet.uav[135] utilizationCountIdleState 1
scalar OsgEarthNet.uav[135] utilizationFail 0
scalar OsgEarthNet.uav[135] simulationTime 259200
scalar OsgEarthNet.uav[136] utilizationSecMission 0
scalar OsgEarthNet.uav[136] utilizationSecMaintenance 0
scalar OsgEarthNet.uav[136] utilizationSecCharge 0
scalar OsgEarthNet.uav[136] utilizationSecIdle 259199.999
scalar OsgEarthNet.uav[136] utilizationEnergyMission 0
scalar OsgEarthNet.uav[136] utilizationEnergyMaintenance 0
scalar OsgEarthNet.uav[136] utilizationEnergyCharge 0
scalar OsgEarthNet.uav[136] utilizationEnergyOverdrawMission 0
scalar OsgEarthNet.uav[136] utilizationEnergyOverdrawMaintenance 0
scalar OsgEarthNet.uav[136] utilizationCountMissions 0
scalar OsgEarthNet.uav[136] utilizationCountManeuversMission 0
scalar OsgEarthNet.uav[136] utilizationCountManeuversMaintenance 0
scalar OsgEarthNet.uav[136] utilizationCountChargeState 0
scalar OsgEarthNet.uav[136] utilizationCountOverdrawnAfterMission 0
scalar OsgEarthNet.uav[136] utilizationCountIdleState 1
scalar OsgEarthNet.uav[136] utilizationFail 0
scalar OsgEarthNet.uav[136] simulationTime 259200
scalar OsgEarthNet.uav[137] utilizationSecMission 0
scalar OsgEarthNet.uav[137] utilizationSecMaintenance 0
scalar OsgEarthNet.uav[137] utilizationSecCharge 0
scalar OsgEarthNet.uav[137] utilizationSecIdle 259199.999
scalar OsgEarthNet.uav[137] utilizationEnergyMission 0
scalar OsgEarthNet.uav[137] utilizationEnergyMaintenance 0
scalar OsgEarthNet.uav[137] utilizationEnergyCharge 0
scalar OsgEarthNet.uav[137] utilizationEnergyOverdrawMission 0
scalar OsgEarthNet.uav[137] utilizationEnergyOverdrawMaintenance 0
scalar OsgEarthNet.uav[137] utilizationCountMissions 0
scalar OsgEarthNet.uav[137] utilizationCountManeuversMission 0
scalar OsgEarthNet.uav[137] utilizationCountManeuversMaintenance 0
scalar OsgEarthNet.uav[137] utilizationCountChargeState 0
scalar OsgEarthNet.uav[137] utilizationCountOverdrawnAfterMission 0
scalar OsgEarthNet.uav[137] utilizationCountIdleState 1
scalar OsgEarthNet.uav[137] utilizationFail 0
scalar OsgEarthNet.uav[137] simulationTime 259200
scalar OsgEarthNet.uav[138] utilizationSecMission 0
scalar OsgEarthNet.uav[138] utilizationSecMaintenance 0
scalar OsgEarthNet.uav[138] utilizationSecCharge 0
scalar OsgEarthNet.uav[138] utilizationSecIdle 259199.999
scalar OsgEarthNet.uav[138] utilizationEnergyMission 0
scalar OsgEarthNet.uav[138] utilizationEnergyMaintenance 0
scalar OsgEarthNet.uav[138] utilizationEnergyCharge 0
scalar OsgEarthNet.uav[138] utilizationEnergyOverdrawMission 0
scalar OsgEarthNet.uav[138] utilizationEnergyOverdrawMaintenance 0
scalar OsgEarthNet.uav[138] utilizationCountMissions 0
scalar OsgEarthNet.uav[138] utilizationCountManeuversMission 0
scalar OsgEarthNet.uav[138] utilizationCountManeuversMaintenance 0
scalar OsgEarthNet.uav[138] utilizationCountChargeState 0
scalar OsgEarthNet.uav[138] utilizationCountOverdrawnAfterMission 0
scalar OsgEarthNet.uav[138] utilizationCountIdleState 1
scalar OsgEarthNet.uav[138] utilizationFail 0
scalar OsgEarthNet.uav[138] simulationTime 259200
scalar OsgEarthNet.uav[139] utilizationSecMission 0
scalar OsgEarthNet.uav[139] utilizationSecMaintenance 0
scalar OsgEarthNet.uav[139] utilizationSecCharge 0
scalar OsgEarthNet.uav[139] utilizationSecIdle 259199.999
scalar OsgEarthNet.uav[139] utilizationEnergyMission 0
scalar OsgEarthNet.uav[139] utilizationEnergyMaintenance 0
scalar OsgEarthNet.uav[139] utilizationEnergyCharge 0
scalar OsgEarthNet.uav[139] utilizationEnergyOverdrawMission 0
scalar OsgEarthNet.uav[139] utilizationEnergyOverdrawMaintenance 0
scalar OsgEarthNet.uav[139] utilizationCountMissions 0
scalar OsgEarthNet.uav[139] utilizationCountManeuversMission 0
scalar OsgEarthNet.uav[139] utilizationCountManeuversMaintenance 0
scalar OsgEarthNet.uav[139] utilizationCountChargeState 0
scalar OsgEarthNet.uav[139] utilizationCountOverdrawnAfterMission 0
scalar OsgEarthNet.uav[139] utilizationCountIdleState 1
scalar OsgEarthNet.uav[139] utilizationFail 0
scalar OsgEarthNet.uav[139] simulationTime 259200
scalar OsgEarthNet.uav[140] utilizationSecMission 0
scalar OsgEarthNet.uav[140] utilizationSecMaintenance 0
scalar OsgEarthNet.uav[140] utilizationSecCharge 0
scalar OsgEarthNet.uav[140] utilizationSecIdle 259199.999
scalar OsgEarthNet.uav[140] utilizationEnergyMission 0
scalar OsgEarthNet.uav[140] utilizationEnergyMaintenance 0
scalar OsgEarthNet.uav[140] utilizationEnergyCharge 0
scalar OsgEarthNet.uav[140] utilizationEnergyOverdrawMission 0
scalar OsgEarthNet.uav[140] utilizationEnergyOverdrawMaintenance 0
scalar OsgEarthNet.uav[140] utilizationCountMissions 0
scalar OsgEarthNet.uav[140] utilizationCountManeuversMission 0
scalar OsgEarthNet.uav[140] utilizationCountManeuversMaintenance 0
scalar OsgEarthNet.uav[140] utilizationCountChargeState 0
scalar OsgEarthNet.uav[140] utilizationCountOverdrawnAfterMission 0
scalar OsgEarthNet.uav[140] utilizationCountIdleState 1
scalar OsgEarthNet.uav[140] utilizationFail 0
scalar OsgEarthNet.uav[140] simulationTime 259200
scalar OsgEarthNet.uav[141] utilizationSecMission 0
scalar OsgEarthNet.uav[141] utilizationSecMaintenance 0
scalar OsgEarthNet.uav[141] utilizationSecCharge 0
scalar OsgEarthNet.uav[141] utilizationSecIdle 259199.999
scalar OsgEarthNet.uav[141] utilizationEnergyMission 0
scalar OsgEarthNet.uav[141] utilizationEnergyMaintenance 0
scalar OsgEarthNet.uav[141] utilizationEnergyCharge 0
scalar OsgEarthNet.uav[141] utilizationEnergyOverdrawMission 0
scalar OsgEarthNet.uav[141] utilizationEnergyOverdrawMaintenance 0
scalar OsgEarthNet.uav[141] utilizationCountMissions 0
scalar OsgEarthNet.uav[141] utilizationCountManeuversMission 0
scalar OsgEarthNet.uav[141] utilizationCountManeuversMaintenance 0
scalar OsgEarthNet.uav[141] utilizationCountChargeState 0
scalar OsgEarthNet.uav[141] utilizationCountOverdrawnAfterMission 0
scalar OsgEarthNet.uav[141] utilizationCountIdleState 1
scalar OsgEarthNet.uav[141] utilizationFail 0
scalar OsgEarthNet.uav[141] simulationTime 259200
scalar OsgEarthNet.uav[142] utilizationSecMission 0
scalar OsgEarthNet.uav[142] utilizationSecMaintenance 0
scalar OsgEarthNet.uav[142] utilizationSecCharge 0
scalar OsgEarthNet.uav[142] utilizationSecIdle 259199.999
scalar OsgEarthNet.uav[142] utilizationEnergyMission 0
scalar OsgEarthNet.uav[142] utilizationEnergyMaintenance 0
scalar OsgEarthNet.uav[142] utilizationEnergyCharge 0
scalar OsgEarthNet.uav[142] utilizationEnergyOverdrawMission 0
scalar OsgEarthNet.uav[142] utilizationEnergyOverdrawMaintenance 0
scalar OsgEarthNet.uav[142] utilizationCountMissions 0
scalar OsgEarthNet.uav[142] utilizationCountManeuversMission 0
scalar OsgEarthNet.uav[142] utilizationCountManeuversMaintenance 0
scalar OsgEarthNet.uav[142] utilizationCountChargeState 0
scalar OsgEarthNet.uav[142] utilizationCountOverdrawnAfterMission 0
scalar OsgEarthNet.uav[142] utilizationCountIdleState 1
scalar OsgEarthNet.uav[142] utilizationFail 0
scalar OsgEarthNet.uav[142] simulationTime 259200
scalar OsgEarthNet.uav[143] utilizationSecMission 0
scalar OsgEarthNet.uav[143] utilizationSecMaintenance 0
scalar OsgEarthNet.uav[143] utilizationSecCharge 0
scalar OsgEarthNet.uav[143] utilizationSecIdle 259199.999
scalar OsgEarthNet.uav[143] utilizationEnergyMission 0
scalar OsgEarthNet.uav[143] utilizationEnergyMaintenance 0
scalar OsgEarthNet.uav[143] utilizationEnergyCharge 0
scalar OsgEarthNet.uav[143] utilizationEnergyOverdrawMission 0
scalar OsgEarthNet.uav[143] utilizationEnergyOverdrawMaintenance 0
scalar OsgEarthNet.uav[143] utilizationCountMissions 0
scalar OsgEarthNet.uav[143] utilizationCountManeuversMission 0
scalar OsgEarthNet.uav[143] utilizationCountManeuversMaintenance 0
scalar OsgEarthNet.uav[143] utilizationCountChargeState 0
scalar OsgEarthNet.uav[143] utilizationCountOverdrawnAfterMission 0
scalar OsgEarthNet.uav[143] utilizationCountIdleState 1
scalar OsgEarthNet.uav[143] utilizationFail 0
scalar OsgEarthNet.uav[143] simulationTime 259200
scalar OsgEarthNet.uav[144] utilizationSecMission 0
scalar OsgEarthNet.uav[144] utilizationSecMaintenance 0
scalar OsgEarthNet.uav[144] utilizationSecCharge 0
scalar OsgEarthNet.uav[144] utilizationSecIdle 259199.999
scalar OsgEarthNet.uav[144] utilizationEnergyMission 0
scalar OsgEarthNet.uav[144] utilizationEnergyMaintenance 0
scalar OsgEarthNet.uav[144] utilizationEnergyCharge 0
scalar OsgEarthNet.uav[144] utilizationEnergyOverdrawMission 0
scalar OsgEarthNet.uav[144] utilizationEnergyOverdrawMaintenance 0
scalar OsgEarthNet.uav[144] utilizationCountMissions 0
scalar OsgEarthNet.uav[144] utilizationCountManeuversMission 0
scalar OsgEarthNet.uav[144] utilizationCountManeuversMaintenance 0
scalar OsgEarthNet.uav[144] utilizationCountChargeState 0
scalar OsgEarthNet.uav[144] utilizationCountOverdrawnAfterMission 0
scalar OsgEarthNet.uav[144] utilizationCountIdleState 1
scalar OsgEarthNet.uav[144] utilizationFail 0
scalar OsgEarthNet.uav[144] simulationTime 259200
scalar OsgEarthNet.uav[145] utilizationSecMission 0
scalar OsgEarthNet.uav[145] utilizationSecMaintenance 0
scalar OsgEarthNet.uav[145] utilizationSecCharge 0
scalar OsgEarthNet.uav[145] utilizationSecIdle 259199.999
scalar OsgEarthNet.uav[145] utilizationEnergyMission 0
scalar OsgEarthNet.uav[145] utilizationEnergyMaintenance 0
scalar OsgEarthNet.uav[145] utilizationEnergyCharge 0
scalar OsgEarthNet.uav[145] utilizationEnergyOverdrawMission 0
scalar OsgEarthNet.uav[145] utilizationEnergyOverdrawMaintenance 0
scalar OsgEarthNet.uav[145] utilizationCountMissions 0
scalar OsgEarthNet.uav[145] utilizationCountManeuversMission 0
scalar OsgEarthNet.uav[145] utilizationCountManeuversMaintenance 0
scalar OsgEarthNet.uav[145] utilizationCountChargeState 0
scalar OsgEarthNet.uav[145] utilizationCountOverdrawnAfterMission 0
scalar OsgEarthNet.uav[145] utilizationCountIdleState 1
scalar OsgEarthNet.uav[145] utilizationFail 0
scalar OsgEarthNet.uav[145] simulationTime 259200
scalar OsgEarthNet.uav[146] utilizationSecMission 0
scalar OsgEarthNet.uav[146] utilizationSecMaintenance 0
scalar OsgEarthNet.uav[146] utilizationSecCharge 0
scalar OsgEarthNet.uav[146] utilizationSecIdle 259199.999
scalar OsgEarthNet.uav[146] utilizationEnergyMission 0
scalar OsgEarthNet.uav[146] utilizationEnergyMaintenance 0
scalar OsgEarthNet.uav[146] utilizationEnergyCharge 0
scalar OsgEarthNet.uav[146] utilizationEnergyOverdrawMission 0
scalar OsgEarthNet.uav[146] utilizationEnergyOverdrawMaintenance 0
scalar OsgEarthNet.uav[146] utilizationCountMissions 0
scalar OsgEarthNet.uav[146] utilizationCountManeuversMission 0
scalar OsgEarthNet.uav[146] utilizationCountManeuversMaintenance 0
scalar OsgEarthNet.uav[146] utilizationCountChargeState 0
scalar OsgEarthNet.uav[146] utilizationCountOverdrawnAfterMission 0
scalar OsgEarthNet.uav[146] utilizationCountIdleState 1
scalar OsgEarthNet.uav[146] utilizationFail 0
scalar OsgEarthNet.uav[146] simulationTime 259200
scalar OsgEarthNet.uav[147] utilizationSecMission 0
scalar OsgEarthNet.uav[147] utilizationSecMaintenance 0
scalar OsgEarthNet.uav[147] utilizationSecCharge 0
scalar OsgEarthNet.uav[147] utilizationSecIdle 259199.999
scalar OsgEarthNet.uav[147] utilizationEnergyMission 0
scalar OsgEarthNet.uav[147] utilizationEnergyMaintenance 0
scalar OsgEarthNet.uav[147] utilizationEnergyCharge 0
scalar OsgEarthNet.uav[147] utilizationEnergyOverdrawMission 0
scalar OsgEarthNet.uav[147] utilizationEnergyOverdrawMaintenance 0
scalar OsgEarthNet.uav[147] utilizationCountMissions 0
scalar OsgEarthNet.uav[147] utilizationCountManeuversMission 0
scalar OsgEarthNet.uav[147] utilizationCountManeuversMaintenance 0
scalar OsgEarthNet.uav[147] utilizationCountChargeState 0
scalar OsgEarthNet.uav[147] utilizationCountOverdrawnAfterMission 0
scalar OsgEarthNet.uav[147] utilizationCountIdleState 1
scalar OsgEarthNet.uav[147] utilizationFail 0
scalar OsgEarthNet.uav[147] simulationTime 259200
scalar OsgEarthNet.uav[148] utilizationSecMission 0
scalar OsgEarthNet.uav[148] utilizationSecMaintenance 0
scalar OsgEarthNet.uav[148] utilizationSecCharge 0
scalar OsgEarthNet.uav[148] utilizationSecIdle 259199.999
scalar OsgEarthNet.uav[148] utilizationEnergyMission 0
scalar OsgEarthNet.uav[148] utilizationEnergyMaintenance 0
scalar OsgEarthNet.uav[148] utilizationEnergyCharge 0
scalar OsgEarthNet.uav[148] utilizationEnergyOverdrawMission 0
scalar OsgEarthNet.uav[148] utilizationEnergyOverdrawMaintenance 0
scalar OsgEarthNet.uav[148] utilizationCountMissions 0
scalar OsgEarthNet.uav[148] utilizationCountManeuversMission 0
scalar OsgEarthNet.uav[148] utilizationCountManeuversMaintenance 0
scalar OsgEarthNet.uav[148] utilizationCountChargeState 0
scalar OsgEarthNet.uav[148] utilizationCountOverdrawnAfterMission 0
scalar OsgEarthNet.uav[148] utilizationCountIdleState 1
scalar OsgEarthNet.uav[148] utilizationFail 0
scalar OsgEarthNet.uav[148] simulationTime 259200
scalar OsgEarthNet.uav[149] utilizationSecMission 0
scalar OsgEarthNet.uav[149] utilizationSecMaintenance 0
scalar OsgEarthNet.uav[149] utilizationSecCharge 0
scalar OsgEarthNet.uav[149] utilizationSecIdle 259199.999
scalar OsgEarthNet.uav[149] utilizationEnergyMission 0
scalar OsgEarthNet.uav[149] utilizationEnergyMaintenance 0
scalar OsgEarthNet.uav[149] utilizationEnergyCharge 0
scalar OsgEarthNet.uav[149] utilizationEnergyOverdrawMission 0
scalar OsgEarthNet.uav[149] utilizationEnergyOverdrawMaintenance 0
scalar OsgEarthNet.uav[149] utilizationCountMissions 0
scalar OsgEarthNet.uav[149] utilizationCountManeuversMission 0
scalar OsgEarthNet.uav[149] utilizationCountManeuversMaintenance 0
scalar OsgEarthNet.uav[149] utilizationCountChargeState 0
scalar OsgEarthNet.uav[149] utilizationCountOverdrawnAfterMission 0
scalar OsgEarthNet.uav[149] utilizationCountIdleState 1
scalar OsgEarthNet.uav[149] utilizationFail 0
scalar OsgEarthNet.uav[149] simulationTime 259200
scalar OsgEarthNet.cs[0] usedPower 3988585.9149704
scalar OsgEarthNet.cs[0] chargedPower 3988585.9149704
scalar OsgEarthNet.cs[0] chargedMobileNodes 877
scalar OsgEarthNet.cs[0] reservations 891
scalar OsgEarthNet.cs[1] usedPower 4138016.0121014
scalar OsgEarthNet.cs[1] chargedPower 4138016.0121014
scalar OsgEarthNet.cs[1] chargedMobileNodes 1034
scalar OsgEarthNet.cs[1] reservations 1049
scalar OsgEarthNet.cs[2] usedPower 8687454.8307065
scalar OsgEarthNet.cs[2] chargedPower 8687454.8307065
scalar OsgEarthNet.cs[2] chargedMobileNodes 669
scalar OsgEarthNet.cs[2] reservations 1893

