version 2
run Szenario_Hotel_Gabelbach-169-20180712-04:04:41-3968
attr configname Szenario_Hotel_Gabelbach
attr datetime 20180712-04:04:41
attr experiment Szenario_Hotel_Gabelbach
attr inifile omnetpp.ini
attr iterationvars "$replM=2, $biWeight=0.35, $replSearchM=1, $numUAVs=80"
attr iterationvarsf replM=2,biWeight=0.35,replSearchM=1,numUAVs=80-
attr measurement "$replM=2, $biWeight=0.35, $replSearchM=1, $numUAVs=80"
attr network OsgEarthNet
attr processid 3968
attr repetition 1
attr replication #1
attr resultdir results
attr runnumber 169
attr seedset 169
itervar biWeight 0.35
itervar numUAVs 80
itervar replM 2
itervar replSearchM 1
param *.osgEarthScene.scene "\"Szenario_Hotel_Gabelbach.earth\""
param *.playgroundLatitude 50.6830269
param *.playgroundLongitude 10.8538055
param *.playgroundWidth 3500m
param *.playgroundHeight 3500m
param *.cs[0].posX 3537m
param *.cs[0].posY 965m
param *.cs[0].posZ 538m
param *.cs[1].posX 312m
param *.cs[1].posY 1262m
param *.cs[1].posZ 539m
param *.cs[2].posX 2185m
param *.cs[2].posY 3026m
param *.cs[2].posZ 777m
param *.cs[3].posX 10m
param *.cs[3].posY 2200m
param *.cs[3].posZ 560m
param *.cs[4].posX 750m
param *.cs[4].posY 200m
param *.cs[4].posZ 540m
param *.cs[5].posX 2450m
param *.cs[5].posY 180m
param *.cs[5].posZ 524m
param *.cs[6].posX 3140m
param *.cs[6].posY 1790m
param *.cs[6].posZ 606m
param *.numCSs 3
param *.uav[*].replacementMethod 2
param *.uav[*].weightedSumWeight 0.35
param *.missionControl.replacementSearchMethod 1
param *.numUAVs 80
param *.numCSs 3
param *.numUAVs 100
param *.*.timeStep 10s
param *.uav[*].commandPreviewCommandCount 20
param *.missionControl.missionFiles "\"missions\\\\Szenario_WB_Hotel_Gabelbach_Mission_Hotel.waypoints,missions\\\\Szenario_WB_Hotel_Gabelbach_Mission_Kickelhahn.waypoints,missions\\\\Szenario_WB_Hotel_Gabelbach_Mission_Ilmenau_Sportplatz.waypoints,missions\\\\Szenario_WB_Hotel_Gabelbach_Mission_Manebach_Mitte.waypoints,missions\\\\Szenario_WB_Hotel_Gabelbach_Mission_Manebach_Sued.waypoints,missions\\\\Szenario_WB_Hotel_Gabelbach_Hover_HoheSchlaufe.waypoints,missions\\\\Szenario_WB_Hotel_Gabelbach_Hover_Kickelhahn.waypoints,missions\\\\Szenario_WB_Hotel_Gabelbach_Hover_Gabelbachskopf.waypoints,missions\\\\Szenario_WB_Hotel_Gabelbach_Hover_Dachskopf.waypoints\""
param *.uav[0].startX 3537m
param *.uav[0].startY 965m
param *.uav[0].startZ 539m
param *.uav[1].startX 312m
param *.uav[1].startY 1262m
param *.uav[1].startZ 540m
param *.uav[2].startX 2185m
param *.uav[2].startY 3026m
param *.uav[2].startZ 778m
param *.uav[3].startX 3537m
param *.uav[3].startY 965m
param *.uav[3].startZ 539m
param *.uav[4].startX 312m
param *.uav[4].startY 1262m
param *.uav[4].startZ 540m
param *.uav[5].startX 2185m
param *.uav[5].startY 3026m
param *.uav[5].startZ 778m
param *.uav[6].startX 3537m
param *.uav[6].startY 965m
param *.uav[6].startZ 539m
param *.uav[7].startX 312m
param *.uav[7].startY 1262m
param *.uav[7].startZ 540m
param *.uav[8].startX 2185m
param *.uav[8].startY 3026m
param *.uav[8].startZ 778m
param *.uav[9].startX 3537m
param *.uav[9].startY 965m
param *.uav[9].startZ 539m
param *.uav[10].startX 3537m
param *.uav[10].startY 965m
param *.uav[10].startZ 539m
param *.uav[11].startX 312m
param *.uav[11].startY 1262m
param *.uav[11].startZ 540m
param *.uav[12].startX 2185m
param *.uav[12].startY 3026m
param *.uav[12].startZ 778m
param *.uav[13].startX 3537m
param *.uav[13].startY 965m
param *.uav[13].startZ 539m
param *.uav[14].startX 312m
param *.uav[14].startY 1262m
param *.uav[14].startZ 540m
param *.uav[15].startX 2185m
param *.uav[15].startY 3026m
param *.uav[15].startZ 778m
param *.uav[16].startX 3537m
param *.uav[16].startY 965m
param *.uav[16].startZ 539m
param *.uav[17].startX 312m
param *.uav[17].startY 1262m
param *.uav[17].startZ 540m
param *.uav[18].startX 2185m
param *.uav[18].startY 3026m
param *.uav[18].startZ 778m
param *.uav[19].startX 3537m
param *.uav[19].startY 965m
param *.uav[19].startZ 539m
param *.uav[20].startX 3537m
param *.uav[20].startY 965m
param *.uav[20].startZ 539m
param *.uav[21].startX 312m
param *.uav[21].startY 1262m
param *.uav[21].startZ 540m
param *.uav[22].startX 2185m
param *.uav[22].startY 3026m
param *.uav[22].startZ 778m
param *.uav[23].startX 3537m
param *.uav[23].startY 965m
param *.uav[23].startZ 539m
param *.uav[24].startX 312m
param *.uav[24].startY 1262m
param *.uav[24].startZ 540m
param *.uav[25].startX 2185m
param *.uav[25].startY 3026m
param *.uav[25].startZ 778m
param *.uav[26].startX 3537m
param *.uav[26].startY 965m
param *.uav[26].startZ 539m
param *.uav[27].startX 312m
param *.uav[27].startY 1262m
param *.uav[27].startZ 540m
param *.uav[28].startX 2185m
param *.uav[28].startY 3026m
param *.uav[28].startZ 778m
param *.uav[29].startX 3537m
param *.uav[29].startY 965m
param *.uav[29].startZ 539m
param *.uav[30].startX 3537m
param *.uav[30].startY 965m
param *.uav[30].startZ 539m
param *.uav[31].startX 312m
param *.uav[31].startY 1262m
param *.uav[31].startZ 540m
param *.uav[32].startX 2185m
param *.uav[32].startY 3026m
param *.uav[32].startZ 778m
param *.uav[33].startX 3537m
param *.uav[33].startY 965m
param *.uav[33].startZ 539m
param *.uav[34].startX 312m
param *.uav[34].startY 1262m
param *.uav[34].startZ 540m
param *.uav[35].startX 2185m
param *.uav[35].startY 3026m
param *.uav[35].startZ 778m
param *.uav[36].startX 3537m
param *.uav[36].startY 965m
param *.uav[36].startZ 539m
param *.uav[37].startX 312m
param *.uav[37].startY 1262m
param *.uav[37].startZ 540m
param *.uav[38].startX 2185m
param *.uav[38].startY 3026m
param *.uav[38].startZ 778m
param *.uav[39].startX 3537m
param *.uav[39].startY 965m
param *.uav[39].startZ 539m
param *.uav[40].startX 3537m
param *.uav[40].startY 965m
param *.uav[40].startZ 539m
param *.uav[41].startX 312m
param *.uav[41].startY 1262m
param *.uav[41].startZ 540m
param *.uav[42].startX 2185m
param *.uav[42].startY 3026m
param *.uav[42].startZ 778m
param *.uav[43].startX 3537m
param *.uav[43].startY 965m
param *.uav[43].startZ 539m
param *.uav[44].startX 312m
param *.uav[44].startY 1262m
param *.uav[44].startZ 540m
param *.uav[45].startX 2185m
param *.uav[45].startY 3026m
param *.uav[45].startZ 778m
param *.uav[46].startX 3537m
param *.uav[46].startY 965m
param *.uav[46].startZ 539m
param *.uav[47].startX 312m
param *.uav[47].startY 1262m
param *.uav[47].startZ 540m
param *.uav[48].startX 2185m
param *.uav[48].startY 3026m
param *.uav[48].startZ 778m
param *.uav[49].startX 3537m
param *.uav[49].startY 965m
param *.uav[49].startZ 539m
param *.uav[50].startX 3537m
param *.uav[50].startY 965m
param *.uav[50].startZ 539m
param *.uav[51].startX 312m
param *.uav[51].startY 1262m
param *.uav[51].startZ 540m
param *.uav[52].startX 2185m
param *.uav[52].startY 3026m
param *.uav[52].startZ 778m
param *.uav[53].startX 3537m
param *.uav[53].startY 965m
param *.uav[53].startZ 539m
param *.uav[54].startX 312m
param *.uav[54].startY 1262m
param *.uav[54].startZ 540m
param *.uav[55].startX 2185m
param *.uav[55].startY 3026m
param *.uav[55].startZ 778m
param *.uav[56].startX 3537m
param *.uav[56].startY 965m
param *.uav[56].startZ 539m
param *.uav[57].startX 312m
param *.uav[57].startY 1262m
param *.uav[57].startZ 540m
param *.uav[58].startX 2185m
param *.uav[58].startY 3026m
param *.uav[58].startZ 778m
param *.uav[59].startX 3537m
param *.uav[59].startY 965m
param *.uav[59].startZ 539m
param *.uav[60].startX 3537m
param *.uav[60].startY 965m
param *.uav[60].startZ 539m
param *.uav[61].startX 312m
param *.uav[61].startY 1262m
param *.uav[61].startZ 540m
param *.uav[62].startX 2185m
param *.uav[62].startY 3026m
param *.uav[62].startZ 778m
param *.uav[63].startX 3537m
param *.uav[63].startY 965m
param *.uav[63].startZ 539m
param *.uav[64].startX 312m
param *.uav[64].startY 1262m
param *.uav[64].startZ 540m
param *.uav[65].startX 2185m
param *.uav[65].startY 3026m
param *.uav[65].startZ 778m
param *.uav[66].startX 3537m
param *.uav[66].startY 965m
param *.uav[66].startZ 539m
param *.uav[67].startX 312m
param *.uav[67].startY 1262m
param *.uav[67].startZ 540m
param *.uav[68].startX 2185m
param *.uav[68].startY 3026m
param *.uav[68].startZ 778m
param *.uav[69].startX 3537m
param *.uav[69].startY 965m
param *.uav[69].startZ 539m
param *.uav[70].startX 3537m
param *.uav[70].startY 965m
param *.uav[70].startZ 539m
param *.uav[71].startX 312m
param *.uav[71].startY 1262m
param *.uav[71].startZ 540m
param *.uav[72].startX 2185m
param *.uav[72].startY 3026m
param *.uav[72].startZ 778m
param *.uav[73].startX 3537m
param *.uav[73].startY 965m
param *.uav[73].startZ 539m
param *.uav[74].startX 312m
param *.uav[74].startY 1262m
param *.uav[74].startZ 540m
param *.uav[75].startX 2185m
param *.uav[75].startY 3026m
param *.uav[75].startZ 778m
param *.uav[76].startX 3537m
param *.uav[76].startY 965m
param *.uav[76].startZ 539m
param *.uav[77].startX 312m
param *.uav[77].startY 1262m
param *.uav[77].startZ 540m
param *.uav[78].startX 2185m
param *.uav[78].startY 3026m
param *.uav[78].startZ 778m
param *.uav[79].startX 3537m
param *.uav[79].startY 965m
param *.uav[79].startZ 539m
param *.uav[80].startX 3537m
param *.uav[80].startY 965m
param *.uav[80].startZ 539m
param *.uav[81].startX 312m
param *.uav[81].startY 1262m
param *.uav[81].startZ 540m
param *.uav[82].startX 2185m
param *.uav[82].startY 3026m
param *.uav[82].startZ 778m
param *.uav[83].startX 3537m
param *.uav[83].startY 965m
param *.uav[83].startZ 539m
param *.uav[84].startX 312m
param *.uav[84].startY 1262m
param *.uav[84].startZ 540m
param *.uav[85].startX 2185m
param *.uav[85].startY 3026m
param *.uav[85].startZ 778m
param *.uav[86].startX 3537m
param *.uav[86].startY 965m
param *.uav[86].startZ 539m
param *.uav[87].startX 312m
param *.uav[87].startY 1262m
param *.uav[87].startZ 540m
param *.uav[88].startX 2185m
param *.uav[88].startY 3026m
param *.uav[88].startZ 778m
param *.uav[89].startX 3537m
param *.uav[89].startY 965m
param *.uav[89].startZ 539m
param *.uav[90].startX 3537m
param *.uav[90].startY 965m
param *.uav[90].startZ 539m
param *.uav[91].startX 312m
param *.uav[91].startY 1262m
param *.uav[91].startZ 540m
param *.uav[92].startX 2185m
param *.uav[92].startY 3026m
param *.uav[92].startZ 778m
param *.uav[93].startX 3537m
param *.uav[93].startY 965m
param *.uav[93].startZ 539m
param *.uav[94].startX 312m
param *.uav[94].startY 1262m
param *.uav[94].startZ 540m
param *.uav[95].startX 2185m
param *.uav[95].startY 3026m
param *.uav[95].startZ 778m
param *.uav[96].startX 3537m
param *.uav[96].startY 965m
param *.uav[96].startZ 539m
param *.uav[97].startX 312m
param *.uav[97].startY 1262m
param *.uav[97].startZ 540m
param *.uav[98].startX 2185m
param *.uav[98].startY 3026m
param *.uav[98].startZ 778m
param *.uav[99].startX 3537m
param *.uav[99].startY 965m
param *.uav[99].startZ 539m
param *.osgEarthScene.scene "\"boston.earth\""
param *.playgroundLatitude 42.3558
param *.playgroundLongitude -71.0677
param *.playgroundWidth 400m
param *.playgroundHeight 200m
param *.channelController.connectionColor "\"#0000FF40\""
param *.channelController.showConnections false
param *.uav[*].modelURL "\"quadrocopter.small.obj.15.scale.0,0,90.rot\""
param *.uav[*].labelColor "\"#FF7C00CC\""
param *.uav[*].label2Color "\"#FF7C00EE\""
param *.uav[*].batteryCapacity 5200mAh
param *.uav[*].batteryRemaining uav[index].batteryCapacity
param *.uav[*].predictionQuantile 0.95
param *.uav[*].replacementMethod 2
param *.uav[*].weightedSumWeight 0.5
param *.cs[*].modelURL "\"chargingstation_v1.osgt.2.scale.0,0,0.rot.0,0,-15e-1.trans\""
param *.cs[*].spotsWaiting 999
param *.cs[*].spotsCharging 999
param *.cs[*].chargeEffectivenessPercentage 100
param *.cs[*].nonLinearPhaseStartPercentage 85
param *.cs[*].chargeCurrent 6.0A
param *.cs[*].prioritizeFastCharge true
param *.missionControl.replacementSearchMethod 0
param *.*.timeStep 9s

scalar OsgEarthNet.uav[0] utilizationSecMission 1200.6251525803
scalar OsgEarthNet.uav[0] utilizationSecMaintenance 650.3478309462
scalar OsgEarthNet.uav[0] utilizationSecCharge 6890
scalar OsgEarthNet.uav[0] utilizationSecIdle 250459.02601647
scalar OsgEarthNet.uav[0] utilizationEnergyMission 6005.0171661377
scalar OsgEarthNet.uav[0] utilizationEnergyMaintenance 3113.7701454163
scalar OsgEarthNet.uav[0] utilizationEnergyCharge 8819.9672851562
scalar OsgEarthNet.uav[0] utilizationEnergyOverdrawMission 0
scalar OsgEarthNet.uav[0] utilizationEnergyOverdrawMaintenance 0
scalar OsgEarthNet.uav[0] utilizationCountMissions 2
scalar OsgEarthNet.uav[0] utilizationCountManeuversMission 34
scalar OsgEarthNet.uav[0] utilizationCountManeuversMaintenance 4
scalar OsgEarthNet.uav[0] utilizationCountChargeState 2
scalar OsgEarthNet.uav[0] utilizationCountOverdrawnAfterMission 0
scalar OsgEarthNet.uav[0] utilizationCountIdleState 3
scalar OsgEarthNet.uav[0] utilizationFail 0
scalar OsgEarthNet.uav[0] simulationTime 259200
scalar OsgEarthNet.uav[1] utilizationSecMission 31267.768773474
scalar OsgEarthNet.uav[1] utilizationSecMaintenance 17266.358818114
scalar OsgEarthNet.uav[1] utilizationSecCharge 182913.86440841
scalar OsgEarthNet.uav[1] utilizationSecIdle 27752.007
scalar OsgEarthNet.uav[1] utilizationEnergyMission 150584.55310059
scalar OsgEarthNet.uav[1] utilizationEnergyMaintenance 81704.194610596
scalar OsgEarthNet.uav[1] utilizationEnergyCharge 229307.91894531
scalar OsgEarthNet.uav[1] utilizationEnergyOverdrawMission 0
scalar OsgEarthNet.uav[1] utilizationEnergyOverdrawMaintenance 0
scalar OsgEarthNet.uav[1] utilizationCountMissions 56
scalar OsgEarthNet.uav[1] utilizationCountManeuversMission 909
scalar OsgEarthNet.uav[1] utilizationCountManeuversMaintenance 112
scalar OsgEarthNet.uav[1] utilizationCountChargeState 56
scalar OsgEarthNet.uav[1] utilizationCountOverdrawnAfterMission 0
scalar OsgEarthNet.uav[1] utilizationCountIdleState 56
scalar OsgEarthNet.uav[1] utilizationFail 0
scalar OsgEarthNet.uav[1] simulationTime 259200
scalar OsgEarthNet.uav[2] utilizationSecMission 35550.847761819
scalar OsgEarthNet.uav[2] utilizationSecMaintenance 14417.323385336
scalar OsgEarthNet.uav[2] utilizationSecCharge 182759.82785285
scalar OsgEarthNet.uav[2] utilizationSecIdle 26472
scalar OsgEarthNet.uav[2] utilizationEnergyMission 174724.6331633
scalar OsgEarthNet.uav[2] utilizationEnergyMaintenance 65408.009414673
scalar OsgEarthNet.uav[2] utilizationEnergyCharge 238357.69824219
scalar OsgEarthNet.uav[2] utilizationEnergyOverdrawMission 0
scalar OsgEarthNet.uav[2] utilizationEnergyOverdrawMaintenance 0
scalar OsgEarthNet.uav[2] utilizationCountMissions 52
scalar OsgEarthNet.uav[2] utilizationCountManeuversMission 1185
scalar OsgEarthNet.uav[2] utilizationCountManeuversMaintenance 103
scalar OsgEarthNet.uav[2] utilizationCountChargeState 52
scalar OsgEarthNet.uav[2] utilizationCountOverdrawnAfterMission 0
scalar OsgEarthNet.uav[2] utilizationCountIdleState 51
scalar OsgEarthNet.uav[2] utilizationFail 0
scalar OsgEarthNet.uav[2] simulationTime 259200
scalar OsgEarthNet.uav[3] utilizationSecMission 16819.119249954
scalar OsgEarthNet.uav[3] utilizationSecMaintenance 8561.8664133244
scalar OsgEarthNet.uav[3] utilizationSecCharge 94890
scalar OsgEarthNet.uav[3] utilizationSecIdle 138929.01333672
scalar OsgEarthNet.uav[3] utilizationEnergyMission 81019.929599762
scalar OsgEarthNet.uav[3] utilizationEnergyMaintenance 40432.782932281
scalar OsgEarthNet.uav[3] utilizationEnergyCharge 122278.15332031
scalar OsgEarthNet.uav[3] utilizationEnergyOverdrawMission 0
scalar OsgEarthNet.uav[3] utilizationEnergyOverdrawMaintenance 0
scalar OsgEarthNet.uav[3] utilizationCountMissions 27
scalar OsgEarthNet.uav[3] utilizationCountManeuversMission 455
scalar OsgEarthNet.uav[3] utilizationCountManeuversMaintenance 54
scalar OsgEarthNet.uav[3] utilizationCountChargeState 27
scalar OsgEarthNet.uav[3] utilizationCountOverdrawnAfterMission 0
scalar OsgEarthNet.uav[3] utilizationCountIdleState 28
scalar OsgEarthNet.uav[3] utilizationFail 0
scalar OsgEarthNet.uav[3] simulationTime 259200
scalar OsgEarthNet.uav[4] utilizationSecMission 32082.385327974
scalar OsgEarthNet.uav[4] utilizationSecMaintenance 15986.720157843
scalar OsgEarthNet.uav[4] utilizationSecCharge 182888.89200746
scalar OsgEarthNet.uav[4] utilizationSecIdle 28242.001506722
scalar OsgEarthNet.uav[4] utilizationEnergyMission 153963.07889557
scalar OsgEarthNet.uav[4] utilizationEnergyMaintenance 75938.778533936
scalar OsgEarthNet.uav[4] utilizationEnergyCharge 230545.83105469
scalar OsgEarthNet.uav[4] utilizationEnergyOverdrawMission 0
scalar OsgEarthNet.uav[4] utilizationEnergyOverdrawMaintenance 0
scalar OsgEarthNet.uav[4] utilizationCountMissions 55
scalar OsgEarthNet.uav[4] utilizationCountManeuversMission 852
scalar OsgEarthNet.uav[4] utilizationCountManeuversMaintenance 110
scalar OsgEarthNet.uav[4] utilizationCountChargeState 55
scalar OsgEarthNet.uav[4] utilizationCountOverdrawnAfterMission 0
scalar OsgEarthNet.uav[4] utilizationCountIdleState 55
scalar OsgEarthNet.uav[4] utilizationFail 0
scalar OsgEarthNet.uav[4] simulationTime 259200
scalar OsgEarthNet.uav[5] utilizationSecMission 35480.229380647
scalar OsgEarthNet.uav[5] utilizationSecMaintenance 14274.079975146
scalar OsgEarthNet.uav[5] utilizationSecCharge 181160
scalar OsgEarthNet.uav[5] utilizationSecIdle 28285.689644207
scalar OsgEarthNet.uav[5] utilizationEnergyMission 169878.16917038
scalar OsgEarthNet.uav[5] utilizationEnergyMaintenance 65714.412830353
scalar OsgEarthNet.uav[5] utilizationEnergyCharge 234673.34130859
scalar OsgEarthNet.uav[5] utilizationEnergyOverdrawMission 0
scalar OsgEarthNet.uav[5] utilizationEnergyOverdrawMaintenance 0
scalar OsgEarthNet.uav[5] utilizationCountMissions 51
scalar OsgEarthNet.uav[5] utilizationCountManeuversMission 1073
scalar OsgEarthNet.uav[5] utilizationCountManeuversMaintenance 102
scalar OsgEarthNet.uav[5] utilizationCountChargeState 51
scalar OsgEarthNet.uav[5] utilizationCountOverdrawnAfterMission 0
scalar OsgEarthNet.uav[5] utilizationCountIdleState 51
scalar OsgEarthNet.uav[5] utilizationFail 0
scalar OsgEarthNet.uav[5] simulationTime 259200
scalar OsgEarthNet.uav[6] utilizationSecMission 9712.7586490717
scalar OsgEarthNet.uav[6] utilizationSecMaintenance 7265.4975560079
scalar OsgEarthNet.uav[6] utilizationSecCharge 62930
scalar OsgEarthNet.uav[6] utilizationSecIdle 179291.74279492
scalar OsgEarthNet.uav[6] utilizationEnergyMission 47201.368507385
scalar OsgEarthNet.uav[6] utilizationEnergyMaintenance 34078.530815124
scalar OsgEarthNet.uav[6] utilizationEnergyCharge 80985.766113281
scalar OsgEarthNet.uav[6] utilizationEnergyOverdrawMission 0
scalar OsgEarthNet.uav[6] utilizationEnergyOverdrawMaintenance 0
scalar OsgEarthNet.uav[6] utilizationCountMissions 18
scalar OsgEarthNet.uav[6] utilizationCountManeuversMission 377
scalar OsgEarthNet.uav[6] utilizationCountManeuversMaintenance 36
scalar OsgEarthNet.uav[6] utilizationCountChargeState 18
scalar OsgEarthNet.uav[6] utilizationCountOverdrawnAfterMission 0
scalar OsgEarthNet.uav[6] utilizationCountIdleState 19
scalar OsgEarthNet.uav[6] utilizationFail 0
scalar OsgEarthNet.uav[6] simulationTime 259200
scalar OsgEarthNet.uav[7] utilizationSecMission 30288.779254372
scalar OsgEarthNet.uav[7] utilizationSecMaintenance 17372.866142749
scalar OsgEarthNet.uav[7] utilizationSecCharge 182380
scalar OsgEarthNet.uav[7] utilizationSecIdle 29158.353602879
scalar OsgEarthNet.uav[7] utilizationEnergyMission 145633.37211432
scalar OsgEarthNet.uav[7] utilizationEnergyMaintenance 82306.135746002
scalar OsgEarthNet.uav[7] utilizationEnergyCharge 224163.80371094
scalar OsgEarthNet.uav[7] utilizationEnergyOverdrawMission 0
scalar OsgEarthNet.uav[7] utilizationEnergyOverdrawMaintenance 0
scalar OsgEarthNet.uav[7] utilizationCountMissions 58
scalar OsgEarthNet.uav[7] utilizationCountManeuversMission 780
scalar OsgEarthNet.uav[7] utilizationCountManeuversMaintenance 117
scalar OsgEarthNet.uav[7] utilizationCountChargeState 58
scalar OsgEarthNet.uav[7] utilizationCountOverdrawnAfterMission 0
scalar OsgEarthNet.uav[7] utilizationCountIdleState 59
scalar OsgEarthNet.uav[7] utilizationFail 0
scalar OsgEarthNet.uav[7] simulationTime 259200
scalar OsgEarthNet.uav[8] utilizationSecMission 33530.383908292
scalar OsgEarthNet.uav[8] utilizationSecMaintenance 15723.000396106
scalar OsgEarthNet.uav[8] utilizationSecCharge 184074.6116956
scalar OsgEarthNet.uav[8] utilizationSecIdle 25872.003
scalar OsgEarthNet.uav[8] utilizationEnergyMission 167214.99459839
scalar OsgEarthNet.uav[8] utilizationEnergyMaintenance 72456.937896729
scalar OsgEarthNet.uav[8] utilizationEnergyCharge 238494.06054688
scalar OsgEarthNet.uav[8] utilizationEnergyOverdrawMission 0
scalar OsgEarthNet.uav[8] utilizationEnergyOverdrawMaintenance 0
scalar OsgEarthNet.uav[8] utilizationCountMissions 52
scalar OsgEarthNet.uav[8] utilizationCountManeuversMission 1255
scalar OsgEarthNet.uav[8] utilizationCountManeuversMaintenance 104
scalar OsgEarthNet.uav[8] utilizationCountChargeState 52
scalar OsgEarthNet.uav[8] utilizationCountOverdrawnAfterMission 0
scalar OsgEarthNet.uav[8] utilizationCountIdleState 51
scalar OsgEarthNet.uav[8] utilizationFail 0
scalar OsgEarthNet.uav[8] simulationTime 259200
scalar OsgEarthNet.uav[9] utilizationSecMission 20055.789204966
scalar OsgEarthNet.uav[9] utilizationSecMaintenance 13682.209795034
scalar OsgEarthNet.uav[9] utilizationSecCharge 126900
scalar OsgEarthNet.uav[9] utilizationSecIdle 98562
scalar OsgEarthNet.uav[9] utilizationEnergyMission 98248.706865896
scalar OsgEarthNet.uav[9] utilizationEnergyMaintenance 64974.601516723
scalar OsgEarthNet.uav[9] utilizationEnergyCharge 163523.85058594
scalar OsgEarthNet.uav[9] utilizationEnergyOverdrawMission 0
scalar OsgEarthNet.uav[9] utilizationEnergyOverdrawMaintenance 0
scalar OsgEarthNet.uav[9] utilizationCountMissions 36
scalar OsgEarthNet.uav[9] utilizationCountManeuversMission 689
scalar OsgEarthNet.uav[9] utilizationCountManeuversMaintenance 73
scalar OsgEarthNet.uav[9] utilizationCountChargeState 36
scalar OsgEarthNet.uav[9] utilizationCountOverdrawnAfterMission 0
scalar OsgEarthNet.uav[9] utilizationCountIdleState 37
scalar OsgEarthNet.uav[9] utilizationFail 0
scalar OsgEarthNet.uav[9] simulationTime 259200
scalar OsgEarthNet.uav[10] utilizationSecMission 15485.001220642
scalar OsgEarthNet.uav[10] utilizationSecMaintenance 10678.588755983
scalar OsgEarthNet.uav[10] utilizationSecCharge 97900
scalar OsgEarthNet.uav[10] utilizationSecIdle 135136.40902338
scalar OsgEarthNet.uav[10] utilizationEnergyMission 75465.591838837
scalar OsgEarthNet.uav[10] utilizationEnergyMaintenance 50637.457057953
scalar OsgEarthNet.uav[10] utilizationEnergyCharge 125783.97558594
scalar OsgEarthNet.uav[10] utilizationEnergyOverdrawMission 0
scalar OsgEarthNet.uav[10] utilizationEnergyOverdrawMaintenance 0
scalar OsgEarthNet.uav[10] utilizationCountMissions 28
scalar OsgEarthNet.uav[10] utilizationCountManeuversMission 566
scalar OsgEarthNet.uav[10] utilizationCountManeuversMaintenance 56
scalar OsgEarthNet.uav[10] utilizationCountChargeState 28
scalar OsgEarthNet.uav[10] utilizationCountOverdrawnAfterMission 0
scalar OsgEarthNet.uav[10] utilizationCountIdleState 29
scalar OsgEarthNet.uav[10] utilizationFail 0
scalar OsgEarthNet.uav[10] simulationTime 259200
scalar OsgEarthNet.uav[11] utilizationSecMission 29828.316996807
scalar OsgEarthNet.uav[11] utilizationSecMaintenance 18249.681003193
scalar OsgEarthNet.uav[11] utilizationSecCharge 185720
scalar OsgEarthNet.uav[11] utilizationSecIdle 25402.001
scalar OsgEarthNet.uav[11] utilizationEnergyMission 143246.2355086
scalar OsgEarthNet.uav[11] utilizationEnergyMaintenance 87090.980510712
scalar OsgEarthNet.uav[11] utilizationEnergyCharge 231816.81201172
scalar OsgEarthNet.uav[11] utilizationEnergyOverdrawMission 0
scalar OsgEarthNet.uav[11] utilizationEnergyOverdrawMaintenance 0
scalar OsgEarthNet.uav[11] utilizationCountMissions 57
scalar OsgEarthNet.uav[11] utilizationCountManeuversMission 914
scalar OsgEarthNet.uav[11] utilizationCountManeuversMaintenance 115
scalar OsgEarthNet.uav[11] utilizationCountChargeState 57
scalar OsgEarthNet.uav[11] utilizationCountOverdrawnAfterMission 0
scalar OsgEarthNet.uav[11] utilizationCountIdleState 58
scalar OsgEarthNet.uav[11] utilizationFail 0
scalar OsgEarthNet.uav[11] simulationTime 259200
scalar OsgEarthNet.uav[12] utilizationSecMission 33018.809479465
scalar OsgEarthNet.uav[12] utilizationSecMaintenance 16093.014319089
scalar OsgEarthNet.uav[12] utilizationSecCharge 182790
scalar OsgEarthNet.uav[12] utilizationSecIdle 27298.175201447
scalar OsgEarthNet.uav[12] utilizationEnergyMission 164317.55657578
scalar OsgEarthNet.uav[12] utilizationEnergyMaintenance 73726.584671021
scalar OsgEarthNet.uav[12] utilizationEnergyCharge 236252.30273438
scalar OsgEarthNet.uav[12] utilizationEnergyOverdrawMission 0
scalar OsgEarthNet.uav[12] utilizationEnergyOverdrawMaintenance 0
scalar OsgEarthNet.uav[12] utilizationCountMissions 52
scalar OsgEarthNet.uav[12] utilizationCountManeuversMission 1184
scalar OsgEarthNet.uav[12] utilizationCountManeuversMaintenance 104
scalar OsgEarthNet.uav[12] utilizationCountChargeState 52
scalar OsgEarthNet.uav[12] utilizationCountOverdrawnAfterMission 0
scalar OsgEarthNet.uav[12] utilizationCountIdleState 52
scalar OsgEarthNet.uav[12] utilizationFail 0
scalar OsgEarthNet.uav[12] simulationTime 259200
scalar OsgEarthNet.uav[13] utilizationSecMission 14866.876678383
scalar OsgEarthNet.uav[13] utilizationSecMaintenance 8748.2916692318
scalar OsgEarthNet.uav[13] utilizationSecCharge 88540
scalar OsgEarthNet.uav[13] utilizationSecIdle 147044.83065239
scalar OsgEarthNet.uav[13] utilizationEnergyMission 71100.387016296
scalar OsgEarthNet.uav[13] utilizationEnergyMaintenance 41389.603965759
scalar OsgEarthNet.uav[13] utilizationEnergyCharge 114174.80175781
scalar OsgEarthNet.uav[13] utilizationEnergyOverdrawMission 0
scalar OsgEarthNet.uav[13] utilizationEnergyOverdrawMaintenance 0
scalar OsgEarthNet.uav[13] utilizationCountMissions 25
scalar OsgEarthNet.uav[13] utilizationCountManeuversMission 457
scalar OsgEarthNet.uav[13] utilizationCountManeuversMaintenance 50
scalar OsgEarthNet.uav[13] utilizationCountChargeState 25
scalar OsgEarthNet.uav[13] utilizationCountOverdrawnAfterMission 0
scalar OsgEarthNet.uav[13] utilizationCountIdleState 26
scalar OsgEarthNet.uav[13] utilizationFail 0
scalar OsgEarthNet.uav[13] simulationTime 259200
scalar OsgEarthNet.uav[14] utilizationSecMission 30685.38649288
scalar OsgEarthNet.uav[14] utilizationSecMaintenance 17186.806899003
scalar OsgEarthNet.uav[14] utilizationSecCharge 180280
scalar OsgEarthNet.uav[14] utilizationSecIdle 31047.805608117
scalar OsgEarthNet.uav[14] utilizationEnergyMission 147417.75020599
scalar OsgEarthNet.uav[14] utilizationEnergyMaintenance 81885.774024393
scalar OsgEarthNet.uav[14] utilizationEnergyCharge 223971.77832031
scalar OsgEarthNet.uav[14] utilizationEnergyOverdrawMission 0
scalar OsgEarthNet.uav[14] utilizationEnergyOverdrawMaintenance 0
scalar OsgEarthNet.uav[14] utilizationCountMissions 57
scalar OsgEarthNet.uav[14] utilizationCountManeuversMission 874
scalar OsgEarthNet.uav[14] utilizationCountManeuversMaintenance 114
scalar OsgEarthNet.uav[14] utilizationCountChargeState 56
scalar OsgEarthNet.uav[14] utilizationCountOverdrawnAfterMission 0
scalar OsgEarthNet.uav[14] utilizationCountIdleState 57
scalar OsgEarthNet.uav[14] utilizationFail 0
scalar OsgEarthNet.uav[14] simulationTime 259200
scalar OsgEarthNet.uav[15] utilizationSecMission 34103.087618644
scalar OsgEarthNet.uav[15] utilizationSecMaintenance 15998.477430216
scalar OsgEarthNet.uav[15] utilizationSecCharge 186750.98368711
scalar OsgEarthNet.uav[15] utilizationSecIdle 22347.450264031
scalar OsgEarthNet.uav[15] utilizationEnergyMission 169985.11090851
scalar OsgEarthNet.uav[15] utilizationEnergyMaintenance 74394.843009949
scalar OsgEarthNet.uav[15] utilizationEnergyCharge 242061.29052734
scalar OsgEarthNet.uav[15] utilizationEnergyOverdrawMission 0
scalar OsgEarthNet.uav[15] utilizationEnergyOverdrawMaintenance 0
scalar OsgEarthNet.uav[15] utilizationCountMissions 53
scalar OsgEarthNet.uav[15] utilizationCountManeuversMission 1240
scalar OsgEarthNet.uav[15] utilizationCountManeuversMaintenance 106
scalar OsgEarthNet.uav[15] utilizationCountChargeState 53
scalar OsgEarthNet.uav[15] utilizationCountOverdrawnAfterMission 0
scalar OsgEarthNet.uav[15] utilizationCountIdleState 52
scalar OsgEarthNet.uav[15] utilizationFail 0
scalar OsgEarthNet.uav[15] simulationTime 259200
scalar OsgEarthNet.uav[16] utilizationSecMission 17837.868944793
scalar OsgEarthNet.uav[16] utilizationSecMaintenance 10500.019949269
scalar OsgEarthNet.uav[16] utilizationSecCharge 105450
scalar OsgEarthNet.uav[16] utilizationSecIdle 125412.11010594
scalar OsgEarthNet.uav[16] utilizationEnergyMission 86611.227890015
scalar OsgEarthNet.uav[16] utilizationEnergyMaintenance 49792.916908264
scalar OsgEarthNet.uav[16] utilizationEnergyCharge 136069.28662109
scalar OsgEarthNet.uav[16] utilizationEnergyOverdrawMission 0
scalar OsgEarthNet.uav[16] utilizationEnergyOverdrawMaintenance 0
scalar OsgEarthNet.uav[16] utilizationCountMissions 30
scalar OsgEarthNet.uav[16] utilizationCountManeuversMission 558
scalar OsgEarthNet.uav[16] utilizationCountManeuversMaintenance 60
scalar OsgEarthNet.uav[16] utilizationCountChargeState 30
scalar OsgEarthNet.uav[16] utilizationCountOverdrawnAfterMission 0
scalar OsgEarthNet.uav[16] utilizationCountIdleState 31
scalar OsgEarthNet.uav[16] utilizationFail 0
scalar OsgEarthNet.uav[16] simulationTime 259200
scalar OsgEarthNet.uav[17] utilizationSecMission 31466.378549175
scalar OsgEarthNet.uav[17] utilizationSecMaintenance 16676.737274097
scalar OsgEarthNet.uav[17] utilizationSecCharge 181234.87517673
scalar OsgEarthNet.uav[17] utilizationSecIdle 29822.008
scalar OsgEarthNet.uav[17] utilizationEnergyMission 150458.45604324
scalar OsgEarthNet.uav[17] utilizationEnergyMaintenance 78992.771686554
scalar OsgEarthNet.uav[17] utilizationEnergyCharge 228861.03442383
scalar OsgEarthNet.uav[17] utilizationEnergyOverdrawMission 0
scalar OsgEarthNet.uav[17] utilizationEnergyOverdrawMaintenance 0
scalar OsgEarthNet.uav[17] utilizationCountMissions 55
scalar OsgEarthNet.uav[17] utilizationCountManeuversMission 908
scalar OsgEarthNet.uav[17] utilizationCountManeuversMaintenance 110
scalar OsgEarthNet.uav[17] utilizationCountChargeState 55
scalar OsgEarthNet.uav[17] utilizationCountOverdrawnAfterMission 0
scalar OsgEarthNet.uav[17] utilizationCountIdleState 54
scalar OsgEarthNet.uav[17] utilizationFail 0
scalar OsgEarthNet.uav[17] simulationTime 259200
scalar OsgEarthNet.uav[18] utilizationSecMission 36651.614812938
scalar OsgEarthNet.uav[18] utilizationSecMaintenance 13667.113939354
scalar OsgEarthNet.uav[18] utilizationSecCharge 182212.05063379
scalar OsgEarthNet.uav[18] utilizationSecIdle 26669.219613916
scalar OsgEarthNet.uav[18] utilizationEnergyMission 175747.78095245
scalar OsgEarthNet.uav[18] utilizationEnergyMaintenance 63165.10269165
scalar OsgEarthNet.uav[18] utilizationEnergyCharge 236785.77389526
scalar OsgEarthNet.uav[18] utilizationEnergyOverdrawMission 0
scalar OsgEarthNet.uav[18] utilizationEnergyOverdrawMaintenance 0
scalar OsgEarthNet.uav[18] utilizationCountMissions 52
scalar OsgEarthNet.uav[18] utilizationCountManeuversMission 1118
scalar OsgEarthNet.uav[18] utilizationCountManeuversMaintenance 104
scalar OsgEarthNet.uav[18] utilizationCountChargeState 52
scalar OsgEarthNet.uav[18] utilizationCountOverdrawnAfterMission 0
scalar OsgEarthNet.uav[18] utilizationCountIdleState 51
scalar OsgEarthNet.uav[18] utilizationFail 0
scalar OsgEarthNet.uav[18] simulationTime 259200
scalar OsgEarthNet.uav[19] utilizationSecMission 21037.759869714
scalar OsgEarthNet.uav[19] utilizationSecMaintenance 13917.502196926
scalar OsgEarthNet.uav[19] utilizationSecCharge 126103.22327241
scalar OsgEarthNet.uav[19] utilizationSecIdle 98141.51366095
scalar OsgEarthNet.uav[19] utilizationEnergyMission 102563.73828888
scalar OsgEarthNet.uav[19] utilizationEnergyMaintenance 65871.971931457
scalar OsgEarthNet.uav[19] utilizationEnergyCharge 162246.07476807
scalar OsgEarthNet.uav[19] utilizationEnergyOverdrawMission 0
scalar OsgEarthNet.uav[19] utilizationEnergyOverdrawMaintenance 0
scalar OsgEarthNet.uav[19] utilizationCountMissions 37
scalar OsgEarthNet.uav[19] utilizationCountManeuversMission 735
scalar OsgEarthNet.uav[19] utilizationCountManeuversMaintenance 74
scalar OsgEarthNet.uav[19] utilizationCountChargeState 37
scalar OsgEarthNet.uav[19] utilizationCountOverdrawnAfterMission 0
scalar OsgEarthNet.uav[19] utilizationCountIdleState 37
scalar OsgEarthNet.uav[19] utilizationFail 0
scalar OsgEarthNet.uav[19] simulationTime 259200
scalar OsgEarthNet.uav[20] utilizationSecMission 18577.243792213
scalar OsgEarthNet.uav[20] utilizationSecMaintenance 11844.490001167
scalar OsgEarthNet.uav[20] utilizationSecCharge 111792.36848031
scalar OsgEarthNet.uav[20] utilizationSecIdle 116985.89672631
scalar OsgEarthNet.uav[20] utilizationEnergyMission 91837.303340912
scalar OsgEarthNet.uav[20] utilizationEnergyMaintenance 56163.844566345
scalar OsgEarthNet.uav[20] utilizationEnergyCharge 143815.91217041
scalar OsgEarthNet.uav[20] utilizationEnergyOverdrawMission 0
scalar OsgEarthNet.uav[20] utilizationEnergyOverdrawMaintenance 0
scalar OsgEarthNet.uav[20] utilizationCountMissions 33
scalar OsgEarthNet.uav[20] utilizationCountManeuversMission 621
scalar OsgEarthNet.uav[20] utilizationCountManeuversMaintenance 66
scalar OsgEarthNet.uav[20] utilizationCountChargeState 33
scalar OsgEarthNet.uav[20] utilizationCountOverdrawnAfterMission 0
scalar OsgEarthNet.uav[20] utilizationCountIdleState 33
scalar OsgEarthNet.uav[20] utilizationFail 0
scalar OsgEarthNet.uav[20] simulationTime 259200
scalar OsgEarthNet.uav[21] utilizationSecMission 31755.188166516
scalar OsgEarthNet.uav[21] utilizationSecMaintenance 16331.359649501
scalar OsgEarthNet.uav[21] utilizationSecCharge 181422.39338879
scalar OsgEarthNet.uav[21] utilizationSecIdle 29691.057795193
scalar OsgEarthNet.uav[21] utilizationEnergyMission 149880.49139404
scalar OsgEarthNet.uav[21] utilizationEnergyMaintenance 77531.999919891
scalar OsgEarthNet.uav[21] utilizationEnergyCharge 227883.11035156
scalar OsgEarthNet.uav[21] utilizationEnergyOverdrawMission 0
scalar OsgEarthNet.uav[21] utilizationEnergyOverdrawMaintenance 0
scalar OsgEarthNet.uav[21] utilizationCountMissions 56
scalar OsgEarthNet.uav[21] utilizationCountManeuversMission 842
scalar OsgEarthNet.uav[21] utilizationCountManeuversMaintenance 112
scalar OsgEarthNet.uav[21] utilizationCountChargeState 56
scalar OsgEarthNet.uav[21] utilizationCountOverdrawnAfterMission 0
scalar OsgEarthNet.uav[21] utilizationCountIdleState 55
scalar OsgEarthNet.uav[21] utilizationFail 0
scalar OsgEarthNet.uav[21] simulationTime 259200
scalar OsgEarthNet.uav[22] utilizationSecMission 35593.544052899
scalar OsgEarthNet.uav[22] utilizationSecMaintenance 13708.432975978
scalar OsgEarthNet.uav[22] utilizationSecCharge 182320
scalar OsgEarthNet.uav[22] utilizationSecIdle 27578.021971123
scalar OsgEarthNet.uav[22] utilizationEnergyMission 171877.25466919
scalar OsgEarthNet.uav[22] utilizationEnergyMaintenance 62539.556781769
scalar OsgEarthNet.uav[22] utilizationEnergyCharge 236638.46191406
scalar OsgEarthNet.uav[22] utilizationEnergyOverdrawMission 0
scalar OsgEarthNet.uav[22] utilizationEnergyOverdrawMaintenance 0
scalar OsgEarthNet.uav[22] utilizationCountMissions 51
scalar OsgEarthNet.uav[22] utilizationCountManeuversMission 1055
scalar OsgEarthNet.uav[22] utilizationCountManeuversMaintenance 102
scalar OsgEarthNet.uav[22] utilizationCountChargeState 51
scalar OsgEarthNet.uav[22] utilizationCountOverdrawnAfterMission 0
scalar OsgEarthNet.uav[22] utilizationCountIdleState 51
scalar OsgEarthNet.uav[22] utilizationFail 0
scalar OsgEarthNet.uav[22] simulationTime 259200
scalar OsgEarthNet.uav[23] utilizationSecMission 23661.619860275
scalar OsgEarthNet.uav[23] utilizationSecMaintenance 12914.065068667
scalar OsgEarthNet.uav[23] utilizationSecCharge 136680
scalar OsgEarthNet.uav[23] utilizationSecIdle 85944.314071058
scalar OsgEarthNet.uav[23] utilizationEnergyMission 115477.06780624
scalar OsgEarthNet.uav[23] utilizationEnergyMaintenance 61275.920368194
scalar OsgEarthNet.uav[23] utilizationEnergyCharge 175693.72705078
scalar OsgEarthNet.uav[23] utilizationEnergyOverdrawMission 0
scalar OsgEarthNet.uav[23] utilizationEnergyOverdrawMaintenance 0
scalar OsgEarthNet.uav[23] utilizationCountMissions 39
scalar OsgEarthNet.uav[23] utilizationCountManeuversMission 693
scalar OsgEarthNet.uav[23] utilizationCountManeuversMaintenance 78
scalar OsgEarthNet.uav[23] utilizationCountChargeState 39
scalar OsgEarthNet.uav[23] utilizationCountOverdrawnAfterMission 0
scalar OsgEarthNet.uav[23] utilizationCountIdleState 40
scalar OsgEarthNet.uav[23] utilizationFail 0
scalar OsgEarthNet.uav[23] simulationTime 259200
scalar OsgEarthNet.uav[24] utilizationSecMission 35187.121987851
scalar OsgEarthNet.uav[24] utilizationSecMaintenance 14607.433923458
scalar OsgEarthNet.uav[24] utilizationSecCharge 181330
scalar OsgEarthNet.uav[24] utilizationSecIdle 28075.443088691
scalar OsgEarthNet.uav[24] utilizationEnergyMission 171209.69243168
scalar OsgEarthNet.uav[24] utilizationEnergyMaintenance 66693.42572403
scalar OsgEarthNet.uav[24] utilizationEnergyCharge 234720.50048828
scalar OsgEarthNet.uav[24] utilizationEnergyOverdrawMission 0
scalar OsgEarthNet.uav[24] utilizationEnergyOverdrawMaintenance 0
scalar OsgEarthNet.uav[24] utilizationCountMissions 51
scalar OsgEarthNet.uav[24] utilizationCountManeuversMission 1222
scalar OsgEarthNet.uav[24] utilizationCountManeuversMaintenance 103
scalar OsgEarthNet.uav[24] utilizationCountChargeState 51
scalar OsgEarthNet.uav[24] utilizationCountOverdrawnAfterMission 0
scalar OsgEarthNet.uav[24] utilizationCountIdleState 52
scalar OsgEarthNet.uav[24] utilizationFail 0
scalar OsgEarthNet.uav[24] simulationTime 259200
scalar OsgEarthNet.uav[25] utilizationSecMission 35980.623733443
scalar OsgEarthNet.uav[25] utilizationSecMaintenance 14229.41062788
scalar OsgEarthNet.uav[25] utilizationSecCharge 182198.51167996
scalar OsgEarthNet.uav[25] utilizationSecIdle 26791.452958717
scalar OsgEarthNet.uav[25] utilizationEnergyMission 171963.61567307
scalar OsgEarthNet.uav[25] utilizationEnergyMaintenance 66193.127696991
scalar OsgEarthNet.uav[25] utilizationEnergyCharge 236296.51245117
scalar OsgEarthNet.uav[25] utilizationEnergyOverdrawMission 0
scalar OsgEarthNet.uav[25] utilizationEnergyOverdrawMaintenance 0
scalar OsgEarthNet.uav[25] utilizationCountMissions 52
scalar OsgEarthNet.uav[25] utilizationCountManeuversMission 1156
scalar OsgEarthNet.uav[25] utilizationCountManeuversMaintenance 104
scalar OsgEarthNet.uav[25] utilizationCountChargeState 52
scalar OsgEarthNet.uav[25] utilizationCountOverdrawnAfterMission 0
scalar OsgEarthNet.uav[25] utilizationCountIdleState 51
scalar OsgEarthNet.uav[25] utilizationFail 0
scalar OsgEarthNet.uav[25] simulationTime 259200
scalar OsgEarthNet.uav[26] utilizationSecMission 35334.960713151
scalar OsgEarthNet.uav[26] utilizationSecMaintenance 13834.089031185
scalar OsgEarthNet.uav[26] utilizationSecCharge 181130
scalar OsgEarthNet.uav[26] utilizationSecIdle 28900.949255665
scalar OsgEarthNet.uav[26] utilizationEnergyMission 171759.22885132
scalar OsgEarthNet.uav[26] utilizationEnergyMaintenance 62841.134790291
scalar OsgEarthNet.uav[26] utilizationEnergyCharge 234477.07275391
scalar OsgEarthNet.uav[26] utilizationEnergyOverdrawMission 0
scalar OsgEarthNet.uav[26] utilizationEnergyOverdrawMaintenance 0
scalar OsgEarthNet.uav[26] utilizationCountMissions 51
scalar OsgEarthNet.uav[26] utilizationCountManeuversMission 1117
scalar OsgEarthNet.uav[26] utilizationCountManeuversMaintenance 103
scalar OsgEarthNet.uav[26] utilizationCountChargeState 51
scalar OsgEarthNet.uav[26] utilizationCountOverdrawnAfterMission 0
scalar OsgEarthNet.uav[26] utilizationCountIdleState 52
scalar OsgEarthNet.uav[26] utilizationFail 0
scalar OsgEarthNet.uav[26] simulationTime 259200
scalar OsgEarthNet.uav[27] utilizationSecMission 29849.689156236
scalar OsgEarthNet.uav[27] utilizationSecMaintenance 18431.401874386
scalar OsgEarthNet.uav[27] utilizationSecCharge 182125.23979139
scalar OsgEarthNet.uav[27] utilizationSecIdle 28793.668177988
scalar OsgEarthNet.uav[27] utilizationEnergyMission 144897.26950455
scalar OsgEarthNet.uav[27] utilizationEnergyMaintenance 86784.210178375
scalar OsgEarthNet.uav[27] utilizationEnergyCharge 225210.86315918
scalar OsgEarthNet.uav[27] utilizationEnergyOverdrawMission 0
scalar OsgEarthNet.uav[27] utilizationEnergyOverdrawMaintenance 0
scalar OsgEarthNet.uav[27] utilizationCountMissions 58
scalar OsgEarthNet.uav[27] utilizationCountManeuversMission 962
scalar OsgEarthNet.uav[27] utilizationCountManeuversMaintenance 116
scalar OsgEarthNet.uav[27] utilizationCountChargeState 58
scalar OsgEarthNet.uav[27] utilizationCountOverdrawnAfterMission 0
scalar OsgEarthNet.uav[27] utilizationCountIdleState 58
scalar OsgEarthNet.uav[27] utilizationFail 0
scalar OsgEarthNet.uav[27] simulationTime 259200
scalar OsgEarthNet.uav[28] utilizationSecMission 35074.864098825
scalar OsgEarthNet.uav[28] utilizationSecMaintenance 14741.626274898
scalar OsgEarthNet.uav[28] utilizationSecCharge 183514.66046648
scalar OsgEarthNet.uav[28] utilizationSecIdle 25868.848159794
scalar OsgEarthNet.uav[28] utilizationEnergyMission 171003.82308578
scalar OsgEarthNet.uav[28] utilizationEnergyMaintenance 66970.314109802
scalar OsgEarthNet.uav[28] utilizationEnergyCharge 238558.48291016
scalar OsgEarthNet.uav[28] utilizationEnergyOverdrawMission 0
scalar OsgEarthNet.uav[28] utilizationEnergyOverdrawMaintenance 0
scalar OsgEarthNet.uav[28] utilizationCountMissions 52
scalar OsgEarthNet.uav[28] utilizationCountManeuversMission 1189
scalar OsgEarthNet.uav[28] utilizationCountManeuversMaintenance 104
scalar OsgEarthNet.uav[28] utilizationCountChargeState 52
scalar OsgEarthNet.uav[28] utilizationCountOverdrawnAfterMission 0
scalar OsgEarthNet.uav[28] utilizationCountIdleState 52
scalar OsgEarthNet.uav[28] utilizationFail 0
scalar OsgEarthNet.uav[28] simulationTime 259200
scalar OsgEarthNet.uav[29] utilizationSecMission 19707.501830963
scalar OsgEarthNet.uav[29] utilizationSecMaintenance 12793.628777077
scalar OsgEarthNet.uav[29] utilizationSecCharge 119573.59781784
scalar OsgEarthNet.uav[29] utilizationSecIdle 107125.27057412
scalar OsgEarthNet.uav[29] utilizationEnergyMission 95784.297847748
scalar OsgEarthNet.uav[29] utilizationEnergyMaintenance 60834.216201782
scalar OsgEarthNet.uav[29] utilizationEnergyCharge 154117.02429199
scalar OsgEarthNet.uav[29] utilizationEnergyOverdrawMission 0
scalar OsgEarthNet.uav[29] utilizationEnergyOverdrawMaintenance 0
scalar OsgEarthNet.uav[29] utilizationCountMissions 35
scalar OsgEarthNet.uav[29] utilizationCountManeuversMission 673
scalar OsgEarthNet.uav[29] utilizationCountManeuversMaintenance 70
scalar OsgEarthNet.uav[29] utilizationCountChargeState 35
scalar OsgEarthNet.uav[29] utilizationCountOverdrawnAfterMission 0
scalar OsgEarthNet.uav[29] utilizationCountIdleState 35
scalar OsgEarthNet.uav[29] utilizationFail 0
scalar OsgEarthNet.uav[29] simulationTime 259200
scalar OsgEarthNet.uav[30] utilizationSecMission 30153.611727914
scalar OsgEarthNet.uav[30] utilizationSecMaintenance 17272.630831175
scalar OsgEarthNet.uav[30] utilizationSecCharge 179729.73817118
scalar OsgEarthNet.uav[30] utilizationSecIdle 32044.018269728
scalar OsgEarthNet.uav[30] utilizationEnergyMission 145147.61979294
scalar OsgEarthNet.uav[30] utilizationEnergyMaintenance 82033.156646729
scalar OsgEarthNet.uav[30] utilizationEnergyCharge 226201.54174805
scalar OsgEarthNet.uav[30] utilizationEnergyOverdrawMission 0
scalar OsgEarthNet.uav[30] utilizationEnergyOverdrawMaintenance 0
scalar OsgEarthNet.uav[30] utilizationCountMissions 55
scalar OsgEarthNet.uav[30] utilizationCountManeuversMission 874
scalar OsgEarthNet.uav[30] utilizationCountManeuversMaintenance 110
scalar OsgEarthNet.uav[30] utilizationCountChargeState 55
scalar OsgEarthNet.uav[30] utilizationCountOverdrawnAfterMission 0
scalar OsgEarthNet.uav[30] utilizationCountIdleState 55
scalar OsgEarthNet.uav[30] utilizationFail 0
scalar OsgEarthNet.uav[30] simulationTime 259200
scalar OsgEarthNet.uav[31] utilizationSecMission 31363.176124194
scalar OsgEarthNet.uav[31] utilizationSecMaintenance 17304.818875806
scalar OsgEarthNet.uav[31] utilizationSecCharge 184510
scalar OsgEarthNet.uav[31] utilizationSecIdle 26022.004
scalar OsgEarthNet.uav[31] utilizationEnergyMission 151635.15154266
scalar OsgEarthNet.uav[31] utilizationEnergyMaintenance 82571.300837515
scalar OsgEarthNet.uav[31] utilizationEnergyCharge 229828.92895508
scalar OsgEarthNet.uav[31] utilizationEnergyOverdrawMission 0
scalar OsgEarthNet.uav[31] utilizationEnergyOverdrawMaintenance 0
scalar OsgEarthNet.uav[31] utilizationCountMissions 58
scalar OsgEarthNet.uav[31] utilizationCountManeuversMission 841
scalar OsgEarthNet.uav[31] utilizationCountManeuversMaintenance 116
scalar OsgEarthNet.uav[31] utilizationCountChargeState 57
scalar OsgEarthNet.uav[31] utilizationCountOverdrawnAfterMission 0
scalar OsgEarthNet.uav[31] utilizationCountIdleState 57
scalar OsgEarthNet.uav[31] utilizationFail 0
scalar OsgEarthNet.uav[31] simulationTime 259200
scalar OsgEarthNet.uav[32] utilizationSecMission 34979.602157346
scalar OsgEarthNet.uav[32] utilizationSecMaintenance 14988.556375122
scalar OsgEarthNet.uav[32] utilizationSecCharge 184072.41512024
scalar OsgEarthNet.uav[32] utilizationSecIdle 25159.42534729
scalar OsgEarthNet.uav[32] utilizationEnergyMission 170324.49309921
scalar OsgEarthNet.uav[32] utilizationEnergyMaintenance 69311.31590271
scalar OsgEarthNet.uav[32] utilizationEnergyCharge 239146.77880859
scalar OsgEarthNet.uav[32] utilizationEnergyOverdrawMission 0
scalar OsgEarthNet.uav[32] utilizationEnergyOverdrawMaintenance 0
scalar OsgEarthNet.uav[32] utilizationCountMissions 52
scalar OsgEarthNet.uav[32] utilizationCountManeuversMission 1157
scalar OsgEarthNet.uav[32] utilizationCountManeuversMaintenance 104
scalar OsgEarthNet.uav[32] utilizationCountChargeState 52
scalar OsgEarthNet.uav[32] utilizationCountOverdrawnAfterMission 0
scalar OsgEarthNet.uav[32] utilizationCountIdleState 51
scalar OsgEarthNet.uav[32] utilizationFail 0
scalar OsgEarthNet.uav[32] simulationTime 259200
scalar OsgEarthNet.uav[33] utilizationSecMission 20786.876678383
scalar OsgEarthNet.uav[33] utilizationSecMaintenance 14642.240119704
scalar OsgEarthNet.uav[33] utilizationSecCharge 133320
scalar OsgEarthNet.uav[33] utilizationSecIdle 90450.882201913
scalar OsgEarthNet.uav[33] utilizationEnergyMission 100840.01914597
scalar OsgEarthNet.uav[33] utilizationEnergyMaintenance 69351.977760315
scalar OsgEarthNet.uav[33] utilizationEnergyCharge 171838.64355469
scalar OsgEarthNet.uav[33] utilizationEnergyOverdrawMission 0
scalar OsgEarthNet.uav[33] utilizationEnergyOverdrawMaintenance 0
scalar OsgEarthNet.uav[33] utilizationCountMissions 38
scalar OsgEarthNet.uav[33] utilizationCountManeuversMission 753
scalar OsgEarthNet.uav[33] utilizationCountManeuversMaintenance 76
scalar OsgEarthNet.uav[33] utilizationCountChargeState 38
scalar OsgEarthNet.uav[33] utilizationCountOverdrawnAfterMission 0
scalar OsgEarthNet.uav[33] utilizationCountIdleState 39
scalar OsgEarthNet.uav[33] utilizationFail 0
scalar OsgEarthNet.uav[33] simulationTime 259200
scalar OsgEarthNet.uav[34] utilizationSecMission 30880.228292691
scalar OsgEarthNet.uav[34] utilizationSecMaintenance 17117.466977225
scalar OsgEarthNet.uav[34] utilizationSecCharge 184040
scalar OsgEarthNet.uav[34] utilizationSecIdle 27162.303730084
scalar OsgEarthNet.uav[34] utilizationEnergyMission 148787.92150497
scalar OsgEarthNet.uav[34] utilizationEnergyMaintenance 81822.845268249
scalar OsgEarthNet.uav[34] utilizationEnergyCharge 229200.36450195
scalar OsgEarthNet.uav[34] utilizationEnergyOverdrawMission 0
scalar OsgEarthNet.uav[34] utilizationEnergyOverdrawMaintenance 0
scalar OsgEarthNet.uav[34] utilizationCountMissions 57
scalar OsgEarthNet.uav[34] utilizationCountManeuversMission 839
scalar OsgEarthNet.uav[34] utilizationCountManeuversMaintenance 114
scalar OsgEarthNet.uav[34] utilizationCountChargeState 57
scalar OsgEarthNet.uav[34] utilizationCountOverdrawnAfterMission 0
scalar OsgEarthNet.uav[34] utilizationCountIdleState 55
scalar OsgEarthNet.uav[34] utilizationFail 0
scalar OsgEarthNet.uav[34] simulationTime 259200
scalar OsgEarthNet.uav[35] utilizationSecMission 35124.122018861
scalar OsgEarthNet.uav[35] utilizationSecMaintenance 14642.235549662
scalar OsgEarthNet.uav[35] utilizationSecCharge 184681.63843148
scalar OsgEarthNet.uav[35] utilizationSecIdle 24752.003
scalar OsgEarthNet.uav[35] utilizationEnergyMission 172145.25452805
scalar OsgEarthNet.uav[35] utilizationEnergyMaintenance 68704.464733124
scalar OsgEarthNet.uav[35] utilizationEnergyCharge 240407.1328125
scalar OsgEarthNet.uav[35] utilizationEnergyOverdrawMission 0
scalar OsgEarthNet.uav[35] utilizationEnergyOverdrawMaintenance 0
scalar OsgEarthNet.uav[35] utilizationCountMissions 52
scalar OsgEarthNet.uav[35] utilizationCountManeuversMission 1219
scalar OsgEarthNet.uav[35] utilizationCountManeuversMaintenance 104
scalar OsgEarthNet.uav[35] utilizationCountChargeState 52
scalar OsgEarthNet.uav[35] utilizationCountOverdrawnAfterMission 0
scalar OsgEarthNet.uav[35] utilizationCountIdleState 51
scalar OsgEarthNet.uav[35] utilizationFail 0
scalar OsgEarthNet.uav[35] simulationTime 259200
scalar OsgEarthNet.uav[36] utilizationSecMission 21977.134717134
scalar OsgEarthNet.uav[36] utilizationSecMaintenance 15416.644251677
scalar OsgEarthNet.uav[36] utilizationSecCharge 140080
scalar OsgEarthNet.uav[36] utilizationSecIdle 81726.22003119
scalar OsgEarthNet.uav[36] utilizationEnergyMission 108061.47009659
scalar OsgEarthNet.uav[36] utilizationEnergyMaintenance 73473.286437988
scalar OsgEarthNet.uav[36] utilizationEnergyCharge 180156.5546875
scalar OsgEarthNet.uav[36] utilizationEnergyOverdrawMission 0
scalar OsgEarthNet.uav[36] utilizationEnergyOverdrawMaintenance 0
scalar OsgEarthNet.uav[36] utilizationCountMissions 40
scalar OsgEarthNet.uav[36] utilizationCountManeuversMission 808
scalar OsgEarthNet.uav[36] utilizationCountManeuversMaintenance 80
scalar OsgEarthNet.uav[36] utilizationCountChargeState 40
scalar OsgEarthNet.uav[36] utilizationCountOverdrawnAfterMission 0
scalar OsgEarthNet.uav[36] utilizationCountIdleState 41
scalar OsgEarthNet.uav[36] utilizationFail 0
scalar OsgEarthNet.uav[36] simulationTime 259200
scalar OsgEarthNet.uav[37] utilizationSecMission 30801.528275865
scalar OsgEarthNet.uav[37] utilizationSecMaintenance 18102.346834198
scalar OsgEarthNet.uav[37] utilizationSecCharge 185241.51200042
scalar OsgEarthNet.uav[37] utilizationSecIdle 25054.611889516
scalar OsgEarthNet.uav[37] utilizationEnergyMission 147817.09862137
scalar OsgEarthNet.uav[37] utilizationEnergyMaintenance 86026.648082733
scalar OsgEarthNet.uav[37] utilizationEnergyCharge 234410.33276367
scalar OsgEarthNet.uav[37] utilizationEnergyOverdrawMission 0
scalar OsgEarthNet.uav[37] utilizationEnergyOverdrawMaintenance 0
scalar OsgEarthNet.uav[37] utilizationCountMissions 56
scalar OsgEarthNet.uav[37] utilizationCountManeuversMission 1028
scalar OsgEarthNet.uav[37] utilizationCountManeuversMaintenance 112
scalar OsgEarthNet.uav[37] utilizationCountChargeState 56
scalar OsgEarthNet.uav[37] utilizationCountOverdrawnAfterMission 0
scalar OsgEarthNet.uav[37] utilizationCountIdleState 56
scalar OsgEarthNet.uav[37] utilizationFail 0
scalar OsgEarthNet.uav[37] simulationTime 259200
scalar OsgEarthNet.uav[38] utilizationSecMission 36980.623221567
scalar OsgEarthNet.uav[38] utilizationSecMaintenance 13235.57503499
scalar OsgEarthNet.uav[38] utilizationSecCharge 179521.79574344
scalar OsgEarthNet.uav[38] utilizationSecIdle 29462.005
scalar OsgEarthNet.uav[38] utilizationEnergyMission 178065.01371384
scalar OsgEarthNet.uav[38] utilizationEnergyMaintenance 59907.756214142
scalar OsgEarthNet.uav[38] utilizationEnergyCharge 233184.6852417
scalar OsgEarthNet.uav[38] utilizationEnergyOverdrawMission 0
scalar OsgEarthNet.uav[38] utilizationEnergyOverdrawMaintenance 0
scalar OsgEarthNet.uav[38] utilizationCountMissions 51
scalar OsgEarthNet.uav[38] utilizationCountManeuversMission 1119
scalar OsgEarthNet.uav[38] utilizationCountManeuversMaintenance 102
scalar OsgEarthNet.uav[38] utilizationCountChargeState 51
scalar OsgEarthNet.uav[38] utilizationCountOverdrawnAfterMission 0
scalar OsgEarthNet.uav[38] utilizationCountIdleState 51
scalar OsgEarthNet.uav[38] utilizationFail 0
scalar OsgEarthNet.uav[38] simulationTime 259200
scalar OsgEarthNet.uav[39] utilizationSecMission 22638.494097373
scalar OsgEarthNet.uav[39] utilizationSecMaintenance 14894.826344991
scalar OsgEarthNet.uav[39] utilizationSecCharge 139104.67455764
scalar OsgEarthNet.uav[39] utilizationSecIdle 82562.004
scalar OsgEarthNet.uav[39] utilizationEnergyMission 110588.09466171
scalar OsgEarthNet.uav[39] utilizationEnergyMaintenance 71276.706878662
scalar OsgEarthNet.uav[39] utilizationEnergyCharge 180136.86791992
scalar OsgEarthNet.uav[39] utilizationEnergyOverdrawMission 0
scalar OsgEarthNet.uav[39] utilizationEnergyOverdrawMaintenance 0
scalar OsgEarthNet.uav[39] utilizationCountMissions 40
scalar OsgEarthNet.uav[39] utilizationCountManeuversMission 772
scalar OsgEarthNet.uav[39] utilizationCountManeuversMaintenance 80
scalar OsgEarthNet.uav[39] utilizationCountChargeState 40
scalar OsgEarthNet.uav[39] utilizationCountOverdrawnAfterMission 0
scalar OsgEarthNet.uav[39] utilizationCountIdleState 40
scalar OsgEarthNet.uav[39] utilizationFail 0
scalar OsgEarthNet.uav[39] simulationTime 259200
scalar OsgEarthNet.uav[40] utilizationSecMission 35051.708284806
scalar OsgEarthNet.uav[40] utilizationSecMaintenance 14495.94024187
scalar OsgEarthNet.uav[40] utilizationSecCharge 181190
scalar OsgEarthNet.uav[40] utilizationSecIdle 28462.350473324
scalar OsgEarthNet.uav[40] utilizationEnergyMission 167868.92846287
scalar OsgEarthNet.uav[40] utilizationEnergyMaintenance 66638.613388062
scalar OsgEarthNet.uav[40] utilizationEnergyCharge 234356.96386719
scalar OsgEarthNet.uav[40] utilizationEnergyOverdrawMission 0
scalar OsgEarthNet.uav[40] utilizationEnergyOverdrawMaintenance 0
scalar OsgEarthNet.uav[40] utilizationCountMissions 51
scalar OsgEarthNet.uav[40] utilizationCountManeuversMission 1137
scalar OsgEarthNet.uav[40] utilizationCountManeuversMaintenance 103
scalar OsgEarthNet.uav[40] utilizationCountChargeState 51
scalar OsgEarthNet.uav[40] utilizationCountOverdrawnAfterMission 0
scalar OsgEarthNet.uav[40] utilizationCountIdleState 52
scalar OsgEarthNet.uav[40] utilizationFail 0
scalar OsgEarthNet.uav[40] simulationTime 259200
scalar OsgEarthNet.uav[41] utilizationSecMission 32162.592127836
scalar OsgEarthNet.uav[41] utilizationSecMaintenance 16439.416831801
scalar OsgEarthNet.uav[41] utilizationSecCharge 183187.02605469
scalar OsgEarthNet.uav[41] utilizationSecIdle 27410.963985674
scalar OsgEarthNet.uav[41] utilizationEnergyMission 154482.27902985
scalar OsgEarthNet.uav[41] utilizationEnergyMaintenance 78578.37865448
scalar OsgEarthNet.uav[41] utilizationEnergyCharge 229530.64123535
scalar OsgEarthNet.uav[41] utilizationEnergyOverdrawMission 0
scalar OsgEarthNet.uav[41] utilizationEnergyOverdrawMaintenance 0
scalar OsgEarthNet.uav[41] utilizationCountMissions 57
scalar OsgEarthNet.uav[41] utilizationCountManeuversMission 833
scalar OsgEarthNet.uav[41] utilizationCountManeuversMaintenance 114
scalar OsgEarthNet.uav[41] utilizationCountChargeState 57
scalar OsgEarthNet.uav[41] utilizationCountOverdrawnAfterMission 0
scalar OsgEarthNet.uav[41] utilizationCountIdleState 55
scalar OsgEarthNet.uav[41] utilizationFail 0
scalar OsgEarthNet.uav[41] simulationTime 259200
scalar OsgEarthNet.uav[42] utilizationSecMission 35192.308877138
scalar OsgEarthNet.uav[42] utilizationSecMaintenance 14724.135097072
scalar OsgEarthNet.uav[42] utilizationSecCharge 182364.09667756
scalar OsgEarthNet.uav[42] utilizationSecIdle 26919.458348228
scalar OsgEarthNet.uav[42] utilizationEnergyMission 174434.20960236
scalar OsgEarthNet.uav[42] utilizationEnergyMaintenance 68688.631435394
scalar OsgEarthNet.uav[42] utilizationEnergyCharge 236819.76977539
scalar OsgEarthNet.uav[42] utilizationEnergyOverdrawMission 0
scalar OsgEarthNet.uav[42] utilizationEnergyOverdrawMaintenance 0
scalar OsgEarthNet.uav[42] utilizationCountMissions 52
scalar OsgEarthNet.uav[42] utilizationCountManeuversMission 1218
scalar OsgEarthNet.uav[42] utilizationCountManeuversMaintenance 104
scalar OsgEarthNet.uav[42] utilizationCountChargeState 52
scalar OsgEarthNet.uav[42] utilizationCountOverdrawnAfterMission 0
scalar OsgEarthNet.uav[42] utilizationCountIdleState 52
scalar OsgEarthNet.uav[42] utilizationFail 0
scalar OsgEarthNet.uav[42] simulationTime 259200
scalar OsgEarthNet.uav[43] utilizationSecMission 23157.239168015
scalar OsgEarthNet.uav[43] utilizationSecMaintenance 14110.190770435
scalar OsgEarthNet.uav[43] utilizationSecCharge 139600.56906155
scalar OsgEarthNet.uav[43] utilizationSecIdle 82332
scalar OsgEarthNet.uav[43] utilizationEnergyMission 111653.57603836
scalar OsgEarthNet.uav[43] utilizationEnergyMaintenance 66856.933563232
scalar OsgEarthNet.uav[43] utilizationEnergyCharge 179872.99560547
scalar OsgEarthNet.uav[43] utilizationEnergyOverdrawMission 0
scalar OsgEarthNet.uav[43] utilizationEnergyOverdrawMaintenance 0
scalar OsgEarthNet.uav[43] utilizationCountMissions 40
scalar OsgEarthNet.uav[43] utilizationCountManeuversMission 734
scalar OsgEarthNet.uav[43] utilizationCountManeuversMaintenance 79
scalar OsgEarthNet.uav[43] utilizationCountChargeState 40
scalar OsgEarthNet.uav[43] utilizationCountOverdrawnAfterMission 0
scalar OsgEarthNet.uav[43] utilizationCountIdleState 40
scalar OsgEarthNet.uav[43] utilizationFail 0
scalar OsgEarthNet.uav[43] simulationTime 259200
scalar OsgEarthNet.uav[44] utilizationSecMission 32903.929018734
scalar OsgEarthNet.uav[44] utilizationSecMaintenance 15622.987855301
scalar OsgEarthNet.uav[44] utilizationSecCharge 182260
scalar OsgEarthNet.uav[44] utilizationSecIdle 28413.082125966
scalar OsgEarthNet.uav[44] utilizationEnergyMission 155158.29983521
scalar OsgEarthNet.uav[44] utilizationEnergyMaintenance 73085.045970917
scalar OsgEarthNet.uav[44] utilizationEnergyCharge 227425.31469727
scalar OsgEarthNet.uav[44] utilizationEnergyOverdrawMission 0
scalar OsgEarthNet.uav[44] utilizationEnergyOverdrawMaintenance 0
scalar OsgEarthNet.uav[44] utilizationCountMissions 56
scalar OsgEarthNet.uav[44] utilizationCountManeuversMission 767
scalar OsgEarthNet.uav[44] utilizationCountManeuversMaintenance 112
scalar OsgEarthNet.uav[44] utilizationCountChargeState 56
scalar OsgEarthNet.uav[44] utilizationCountOverdrawnAfterMission 0
scalar OsgEarthNet.uav[44] utilizationCountIdleState 56
scalar OsgEarthNet.uav[44] utilizationFail 0
scalar OsgEarthNet.uav[44] simulationTime 259200
scalar OsgEarthNet.uav[45] utilizationSecMission 34642.285270294
scalar OsgEarthNet.uav[45] utilizationSecMaintenance 15245.713729706
scalar OsgEarthNet.uav[45] utilizationSecCharge 184140
scalar OsgEarthNet.uav[45] utilizationSecIdle 25172
scalar OsgEarthNet.uav[45] utilizationEnergyMission 167454.36157738
scalar OsgEarthNet.uav[45] utilizationEnergyMaintenance 71046.213237762
scalar OsgEarthNet.uav[45] utilizationEnergyCharge 238583.53564453
scalar OsgEarthNet.uav[45] utilizationEnergyOverdrawMission 0
scalar OsgEarthNet.uav[45] utilizationEnergyOverdrawMaintenance 0
scalar OsgEarthNet.uav[45] utilizationCountMissions 52
scalar OsgEarthNet.uav[45] utilizationCountManeuversMission 1112
scalar OsgEarthNet.uav[45] utilizationCountManeuversMaintenance 104
scalar OsgEarthNet.uav[45] utilizationCountChargeState 52
scalar OsgEarthNet.uav[45] utilizationCountOverdrawnAfterMission 0
scalar OsgEarthNet.uav[45] utilizationCountIdleState 52
scalar OsgEarthNet.uav[45] utilizationFail 0
scalar OsgEarthNet.uav[45] simulationTime 259200
scalar OsgEarthNet.uav[46] utilizationSecMission 22099.635327455
scalar OsgEarthNet.uav[46] utilizationSecMaintenance 13888.348672545
scalar OsgEarthNet.uav[46] utilizationSecCharge 134450
scalar OsgEarthNet.uav[46] utilizationSecIdle 88762.015
scalar OsgEarthNet.uav[46] utilizationEnergyMission 107333.20900726
scalar OsgEarthNet.uav[46] utilizationEnergyMaintenance 65794.67009083
scalar OsgEarthNet.uav[46] utilizationEnergyCharge 173773.74316406
scalar OsgEarthNet.uav[46] utilizationEnergyOverdrawMission 0
scalar OsgEarthNet.uav[46] utilizationEnergyOverdrawMaintenance 0
scalar OsgEarthNet.uav[46] utilizationCountMissions 38
scalar OsgEarthNet.uav[46] utilizationCountManeuversMission 710
scalar OsgEarthNet.uav[46] utilizationCountManeuversMaintenance 77
scalar OsgEarthNet.uav[46] utilizationCountChargeState 38
scalar OsgEarthNet.uav[46] utilizationCountOverdrawnAfterMission 0
scalar OsgEarthNet.uav[46] utilizationCountIdleState 39
scalar OsgEarthNet.uav[46] utilizationFail 0
scalar OsgEarthNet.uav[46] simulationTime 259200
scalar OsgEarthNet.uav[47] utilizationSecMission 31005.644986058
scalar OsgEarthNet.uav[47] utilizationSecMaintenance 17698.379883071
scalar OsgEarthNet.uav[47] utilizationSecCharge 186050
scalar OsgEarthNet.uav[47] utilizationSecIdle 24445.974130871
scalar OsgEarthNet.uav[47] utilizationEnergyMission 151365.13515472
scalar OsgEarthNet.uav[47] utilizationEnergyMaintenance 83528.299968719
scalar OsgEarthNet.uav[47] utilizationEnergyCharge 232512.68261719
scalar OsgEarthNet.uav[47] utilizationEnergyOverdrawMission 0
scalar OsgEarthNet.uav[47] utilizationEnergyOverdrawMaintenance 0
scalar OsgEarthNet.uav[47] utilizationCountMissions 57
scalar OsgEarthNet.uav[47] utilizationCountManeuversMission 892
scalar OsgEarthNet.uav[47] utilizationCountManeuversMaintenance 113
scalar OsgEarthNet.uav[47] utilizationCountChargeState 57
scalar OsgEarthNet.uav[47] utilizationCountOverdrawnAfterMission 0
scalar OsgEarthNet.uav[47] utilizationCountIdleState 57
scalar OsgEarthNet.uav[47] utilizationFail 0
scalar OsgEarthNet.uav[47] simulationTime 259200
scalar OsgEarthNet.uav[48] utilizationSecMission 35230.68394824
scalar OsgEarthNet.uav[48] utilizationSecMaintenance 14950.361650724
scalar OsgEarthNet.uav[48] utilizationSecCharge 182997.28034945
scalar OsgEarthNet.uav[48] utilizationSecIdle 26021.673051586
scalar OsgEarthNet.uav[48] utilizationEnergyMission 169028.61198807
scalar OsgEarthNet.uav[48] utilizationEnergyMaintenance 70058.702766418
scalar OsgEarthNet.uav[48] utilizationEnergyCharge 238065.09301758
scalar OsgEarthNet.uav[48] utilizationEnergyOverdrawMission 0
scalar OsgEarthNet.uav[48] utilizationEnergyOverdrawMaintenance 0
scalar OsgEarthNet.uav[48] utilizationCountMissions 52
scalar OsgEarthNet.uav[48] utilizationCountManeuversMission 1127
scalar OsgEarthNet.uav[48] utilizationCountManeuversMaintenance 104
scalar OsgEarthNet.uav[48] utilizationCountChargeState 52
scalar OsgEarthNet.uav[48] utilizationCountOverdrawnAfterMission 0
scalar OsgEarthNet.uav[48] utilizationCountIdleState 52
scalar OsgEarthNet.uav[48] utilizationFail 0
scalar OsgEarthNet.uav[48] simulationTime 259200
scalar OsgEarthNet.uav[49] utilizationSecMission 19967.501830963
scalar OsgEarthNet.uav[49] utilizationSecMaintenance 12870.964778504
scalar OsgEarthNet.uav[49] utilizationSecCharge 122099.52139053
scalar OsgEarthNet.uav[49] utilizationSecIdle 104262.011
scalar OsgEarthNet.uav[49] utilizationEnergyMission 98268.543998718
scalar OsgEarthNet.uav[49] utilizationEnergyMaintenance 61349.388187408
scalar OsgEarthNet.uav[49] utilizationEnergyCharge 158628.58789062
scalar OsgEarthNet.uav[49] utilizationEnergyOverdrawMission 0
scalar OsgEarthNet.uav[49] utilizationEnergyOverdrawMaintenance 0
scalar OsgEarthNet.uav[49] utilizationCountMissions 35
scalar OsgEarthNet.uav[49] utilizationCountManeuversMission 686
scalar OsgEarthNet.uav[49] utilizationCountManeuversMaintenance 70
scalar OsgEarthNet.uav[49] utilizationCountChargeState 35
scalar OsgEarthNet.uav[49] utilizationCountOverdrawnAfterMission 0
scalar OsgEarthNet.uav[49] utilizationCountIdleState 35
scalar OsgEarthNet.uav[49] utilizationFail 0
scalar OsgEarthNet.uav[49] simulationTime 259200
scalar OsgEarthNet.uav[50] utilizationSecMission 24830.629109142
scalar OsgEarthNet.uav[50] utilizationSecMaintenance 13323.395385284
scalar OsgEarthNet.uav[50] utilizationSecCharge 139743.96850557
scalar OsgEarthNet.uav[50] utilizationSecIdle 81302.006
scalar OsgEarthNet.uav[50] utilizationEnergyMission 118759.97879028
scalar OsgEarthNet.uav[50] utilizationEnergyMaintenance 63314.536502838
scalar OsgEarthNet.uav[50] utilizationEnergyCharge 179375.01757812
scalar OsgEarthNet.uav[50] utilizationEnergyOverdrawMission 0
scalar OsgEarthNet.uav[50] utilizationEnergyOverdrawMaintenance 0
scalar OsgEarthNet.uav[50] utilizationCountMissions 41
scalar OsgEarthNet.uav[50] utilizationCountManeuversMission 644
scalar OsgEarthNet.uav[50] utilizationCountManeuversMaintenance 82
scalar OsgEarthNet.uav[50] utilizationCountChargeState 41
scalar OsgEarthNet.uav[50] utilizationCountOverdrawnAfterMission 0
scalar OsgEarthNet.uav[50] utilizationCountIdleState 40
scalar OsgEarthNet.uav[50] utilizationFail 0
scalar OsgEarthNet.uav[50] simulationTime 259200
scalar OsgEarthNet.uav[51] utilizationSecMission 31644.407342245
scalar OsgEarthNet.uav[51] utilizationSecMaintenance 17641.779434093
scalar OsgEarthNet.uav[51] utilizationSecCharge 184602.00392199
scalar OsgEarthNet.uav[51] utilizationSecIdle 25311.808301668
scalar OsgEarthNet.uav[51] utilizationEnergyMission 153206.76889038
scalar OsgEarthNet.uav[51] utilizationEnergyMaintenance 83751.312561035
scalar OsgEarthNet.uav[51] utilizationEnergyCharge 235179.94580078
scalar OsgEarthNet.uav[51] utilizationEnergyOverdrawMission 0
scalar OsgEarthNet.uav[51] utilizationEnergyOverdrawMaintenance 0
scalar OsgEarthNet.uav[51] utilizationCountMissions 55
scalar OsgEarthNet.uav[51] utilizationCountManeuversMission 996
scalar OsgEarthNet.uav[51] utilizationCountManeuversMaintenance 110
scalar OsgEarthNet.uav[51] utilizationCountChargeState 55
scalar OsgEarthNet.uav[51] utilizationCountOverdrawnAfterMission 0
scalar OsgEarthNet.uav[51] utilizationCountIdleState 54
scalar OsgEarthNet.uav[51] utilizationFail 0
scalar OsgEarthNet.uav[51] simulationTime 259200
scalar OsgEarthNet.uav[52] utilizationSecMission 36324.136049207
scalar OsgEarthNet.uav[52] utilizationSecMaintenance 14249.584356338
scalar OsgEarthNet.uav[52] utilizationSecCharge 181497.10348404
scalar OsgEarthNet.uav[52] utilizationSecIdle 27129.175110411
scalar OsgEarthNet.uav[52] utilizationEnergyMission 174056.34102631
scalar OsgEarthNet.uav[52] utilizationEnergyMaintenance 66535.958435059
scalar OsgEarthNet.uav[52] utilizationEnergyCharge 236313.49829102
scalar OsgEarthNet.uav[52] utilizationEnergyOverdrawMission 0
scalar OsgEarthNet.uav[52] utilizationEnergyOverdrawMaintenance 0
scalar OsgEarthNet.uav[52] utilizationCountMissions 52
scalar OsgEarthNet.uav[52] utilizationCountManeuversMission 1093
scalar OsgEarthNet.uav[52] utilizationCountManeuversMaintenance 104
scalar OsgEarthNet.uav[52] utilizationCountChargeState 52
scalar OsgEarthNet.uav[52] utilizationCountOverdrawnAfterMission 0
scalar OsgEarthNet.uav[52] utilizationCountIdleState 51
scalar OsgEarthNet.uav[52] utilizationFail 0
scalar OsgEarthNet.uav[52] simulationTime 259200
scalar OsgEarthNet.uav[53] utilizationSecMission 22892.393976526
scalar OsgEarthNet.uav[53] utilizationSecMaintenance 12444.129547509
scalar OsgEarthNet.uav[53] utilizationSecCharge 129521.46147596
scalar OsgEarthNet.uav[53] utilizationSecIdle 94342.014
scalar OsgEarthNet.uav[53] utilizationEnergyMission 109501.10571671
scalar OsgEarthNet.uav[53] utilizationEnergyMaintenance 58974.130672455
scalar OsgEarthNet.uav[53] utilizationEnergyCharge 167872.5065918
scalar OsgEarthNet.uav[53] utilizationEnergyOverdrawMission 0
scalar OsgEarthNet.uav[53] utilizationEnergyOverdrawMaintenance 0
scalar OsgEarthNet.uav[53] utilizationCountMissions 37
scalar OsgEarthNet.uav[53] utilizationCountManeuversMission 641
scalar OsgEarthNet.uav[53] utilizationCountManeuversMaintenance 74
scalar OsgEarthNet.uav[53] utilizationCountChargeState 37
scalar OsgEarthNet.uav[53] utilizationCountOverdrawnAfterMission 0
scalar OsgEarthNet.uav[53] utilizationCountIdleState 37
scalar OsgEarthNet.uav[53] utilizationFail 0
scalar OsgEarthNet.uav[53] simulationTime 259200
scalar OsgEarthNet.uav[54] utilizationSecMission 30531.793402126
scalar OsgEarthNet.uav[54] utilizationSecMaintenance 17776.196597874
scalar OsgEarthNet.uav[54] utilizationSecCharge 182200
scalar OsgEarthNet.uav[54] utilizationSecIdle 28692.009
scalar OsgEarthNet.uav[54] utilizationEnergyMission 146657.76842832
scalar OsgEarthNet.uav[54] utilizationEnergyMaintenance 84378.818279266
scalar OsgEarthNet.uav[54] utilizationEnergyCharge 225484.49194336
scalar OsgEarthNet.uav[54] utilizationEnergyOverdrawMission 0
scalar OsgEarthNet.uav[54] utilizationEnergyOverdrawMaintenance 0
scalar OsgEarthNet.uav[54] utilizationCountMissions 57
scalar OsgEarthNet.uav[54] utilizationCountManeuversMission 866
scalar OsgEarthNet.uav[54] utilizationCountManeuversMaintenance 115
scalar OsgEarthNet.uav[54] utilizationCountChargeState 57
scalar OsgEarthNet.uav[54] utilizationCountOverdrawnAfterMission 0
scalar OsgEarthNet.uav[54] utilizationCountIdleState 56
scalar OsgEarthNet.uav[54] utilizationFail 0
scalar OsgEarthNet.uav[54] simulationTime 259200
scalar OsgEarthNet.uav[55] utilizationSecMission 35432.243971029
scalar OsgEarthNet.uav[55] utilizationSecMaintenance 14513.889806742
scalar OsgEarthNet.uav[55] utilizationSecCharge 182981.86122223
scalar OsgEarthNet.uav[55] utilizationSecIdle 26272.004
scalar OsgEarthNet.uav[55] utilizationEnergyMission 172904.08280945
scalar OsgEarthNet.uav[55] utilizationEnergyMaintenance 67685.830459595
scalar OsgEarthNet.uav[55] utilizationEnergyCharge 237669.04052734
scalar OsgEarthNet.uav[55] utilizationEnergyOverdrawMission 0
scalar OsgEarthNet.uav[55] utilizationEnergyOverdrawMaintenance 0
scalar OsgEarthNet.uav[55] utilizationCountMissions 52
scalar OsgEarthNet.uav[55] utilizationCountManeuversMission 1156
scalar OsgEarthNet.uav[55] utilizationCountManeuversMaintenance 104
scalar OsgEarthNet.uav[55] utilizationCountChargeState 52
scalar OsgEarthNet.uav[55] utilizationCountOverdrawnAfterMission 0
scalar OsgEarthNet.uav[55] utilizationCountIdleState 52
scalar OsgEarthNet.uav[55] utilizationFail 0
scalar OsgEarthNet.uav[55] simulationTime 259200
scalar OsgEarthNet.uav[56] utilizationSecMission 36531.529411661
scalar OsgEarthNet.uav[56] utilizationSecMaintenance 13676.080856841
scalar OsgEarthNet.uav[56] utilizationSecCharge 182310.3887315
scalar OsgEarthNet.uav[56] utilizationSecIdle 26682
scalar OsgEarthNet.uav[56] utilizationEnergyMission 175803.27558517
scalar OsgEarthNet.uav[56] utilizationEnergyMaintenance 62796.580093384
scalar OsgEarthNet.uav[56] utilizationEnergyCharge 237688.91040039
scalar OsgEarthNet.uav[56] utilizationEnergyOverdrawMission 0
scalar OsgEarthNet.uav[56] utilizationEnergyOverdrawMaintenance 0
scalar OsgEarthNet.uav[56] utilizationCountMissions 52
scalar OsgEarthNet.uav[56] utilizationCountManeuversMission 985
scalar OsgEarthNet.uav[56] utilizationCountManeuversMaintenance 103
scalar OsgEarthNet.uav[56] utilizationCountChargeState 52
scalar OsgEarthNet.uav[56] utilizationCountOverdrawnAfterMission 0
scalar OsgEarthNet.uav[56] utilizationCountIdleState 51
scalar OsgEarthNet.uav[56] utilizationFail 0
scalar OsgEarthNet.uav[56] simulationTime 259200
scalar OsgEarthNet.uav[57] utilizationSecMission 30205.061619003
scalar OsgEarthNet.uav[57] utilizationSecMaintenance 17837.048015044
scalar OsgEarthNet.uav[57] utilizationSecCharge 184750
scalar OsgEarthNet.uav[57] utilizationSecIdle 26407.889365953
scalar OsgEarthNet.uav[57] utilizationEnergyMission 144513.19314957
scalar OsgEarthNet.uav[57] utilizationEnergyMaintenance 85502.172405243
scalar OsgEarthNet.uav[57] utilizationEnergyCharge 230190.67822266
scalar OsgEarthNet.uav[57] utilizationEnergyOverdrawMission 0
scalar OsgEarthNet.uav[57] utilizationEnergyOverdrawMaintenance 0
scalar OsgEarthNet.uav[57] utilizationCountMissions 57
scalar OsgEarthNet.uav[57] utilizationCountManeuversMission 869
scalar OsgEarthNet.uav[57] utilizationCountManeuversMaintenance 114
scalar OsgEarthNet.uav[57] utilizationCountChargeState 57
scalar OsgEarthNet.uav[57] utilizationCountOverdrawnAfterMission 0
scalar OsgEarthNet.uav[57] utilizationCountIdleState 58
scalar OsgEarthNet.uav[57] utilizationFail 0
scalar OsgEarthNet.uav[57] simulationTime 259200
scalar OsgEarthNet.uav[58] utilizationSecMission 34819.624047504
scalar OsgEarthNet.uav[58] utilizationSecMaintenance 15427.024233953
scalar OsgEarthNet.uav[58] utilizationSecCharge 186021.35071854
scalar OsgEarthNet.uav[58] utilizationSecIdle 22932
scalar OsgEarthNet.uav[58] utilizationEnergyMission 170794.1940918
scalar OsgEarthNet.uav[58] utilizationEnergyMaintenance 70624.257484436
scalar OsgEarthNet.uav[58] utilizationEnergyCharge 242804.13476562
scalar OsgEarthNet.uav[58] utilizationEnergyOverdrawMission 0
scalar OsgEarthNet.uav[58] utilizationEnergyOverdrawMaintenance 0
scalar OsgEarthNet.uav[58] utilizationCountMissions 53
scalar OsgEarthNet.uav[58] utilizationCountManeuversMission 1207
scalar OsgEarthNet.uav[58] utilizationCountManeuversMaintenance 106
scalar OsgEarthNet.uav[58] utilizationCountChargeState 53
scalar OsgEarthNet.uav[58] utilizationCountOverdrawnAfterMission 0
scalar OsgEarthNet.uav[58] utilizationCountIdleState 52
scalar OsgEarthNet.uav[58] utilizationFail 0
scalar OsgEarthNet.uav[58] simulationTime 259200
scalar OsgEarthNet.uav[59] utilizationSecMission 21488.126983544
scalar OsgEarthNet.uav[59] utilizationSecMaintenance 14221.116408247
scalar OsgEarthNet.uav[59] utilizationSecCharge 132748.74360821
scalar OsgEarthNet.uav[59] utilizationSecIdle 90742.012
scalar OsgEarthNet.uav[59] utilizationEnergyMission 102239.67327118
scalar OsgEarthNet.uav[59] utilizationEnergyMaintenance 67288.97101593
scalar OsgEarthNet.uav[59] utilizationEnergyCharge 171241.41650391
scalar OsgEarthNet.uav[59] utilizationEnergyOverdrawMission 0
scalar OsgEarthNet.uav[59] utilizationEnergyOverdrawMaintenance 0
scalar OsgEarthNet.uav[59] utilizationCountMissions 38
scalar OsgEarthNet.uav[59] utilizationCountManeuversMission 736
scalar OsgEarthNet.uav[59] utilizationCountManeuversMaintenance 76
scalar OsgEarthNet.uav[59] utilizationCountChargeState 38
scalar OsgEarthNet.uav[59] utilizationCountOverdrawnAfterMission 0
scalar OsgEarthNet.uav[59] utilizationCountIdleState 38
scalar OsgEarthNet.uav[59] utilizationFail 0
scalar OsgEarthNet.uav[59] simulationTime 259200
scalar OsgEarthNet.uav[60] utilizationSecMission 30397.513413278
scalar OsgEarthNet.uav[60] utilizationSecMaintenance 17859.371908406
scalar OsgEarthNet.uav[60] utilizationSecCharge 180856.01017319
scalar OsgEarthNet.uav[60] utilizationSecIdle 30087.103505129
scalar OsgEarthNet.uav[60] utilizationEnergyMission 148367.85918427
scalar OsgEarthNet.uav[60] utilizationEnergyMaintenance 83469.169567108
scalar OsgEarthNet.uav[60] utilizationEnergyCharge 226656.31451416
scalar OsgEarthNet.uav[60] utilizationEnergyOverdrawMission 0
scalar OsgEarthNet.uav[60] utilizationEnergyOverdrawMaintenance 0
scalar OsgEarthNet.uav[60] utilizationCountMissions 56
scalar OsgEarthNet.uav[60] utilizationCountManeuversMission 953
scalar OsgEarthNet.uav[60] utilizationCountManeuversMaintenance 112
scalar OsgEarthNet.uav[60] utilizationCountChargeState 56
scalar OsgEarthNet.uav[60] utilizationCountOverdrawnAfterMission 0
scalar OsgEarthNet.uav[60] utilizationCountIdleState 56
scalar OsgEarthNet.uav[60] utilizationFail 0
scalar OsgEarthNet.uav[60] simulationTime 259200
scalar OsgEarthNet.uav[61] utilizationSecMission 31579.540138763
scalar OsgEarthNet.uav[61] utilizationSecMaintenance 16887.72996665
scalar OsgEarthNet.uav[61] utilizationSecCharge 182390.72589459
scalar OsgEarthNet.uav[61] utilizationSecIdle 28342.003
scalar OsgEarthNet.uav[61] utilizationEnergyMission 153369.19776154
scalar OsgEarthNet.uav[61] utilizationEnergyMaintenance 79602.592796326
scalar OsgEarthNet.uav[61] utilizationEnergyCharge 229696.80322266
scalar OsgEarthNet.uav[61] utilizationEnergyOverdrawMission 0
scalar OsgEarthNet.uav[61] utilizationEnergyOverdrawMaintenance 0
scalar OsgEarthNet.uav[61] utilizationCountMissions 56
scalar OsgEarthNet.uav[61] utilizationCountManeuversMission 915
scalar OsgEarthNet.uav[61] utilizationCountManeuversMaintenance 112
scalar OsgEarthNet.uav[61] utilizationCountChargeState 56
scalar OsgEarthNet.uav[61] utilizationCountOverdrawnAfterMission 0
scalar OsgEarthNet.uav[61] utilizationCountIdleState 56
scalar OsgEarthNet.uav[61] utilizationFail 0
scalar OsgEarthNet.uav[61] simulationTime 259200
scalar OsgEarthNet.uav[62] utilizationSecMission 36027.773759259
scalar OsgEarthNet.uav[62] utilizationSecMaintenance 14630.225240741
scalar OsgEarthNet.uav[62] utilizationSecCharge 182900
scalar OsgEarthNet.uav[62] utilizationSecIdle 25642
scalar OsgEarthNet.uav[62] utilizationEnergyMission 174791.30200939
scalar OsgEarthNet.uav[62] utilizationEnergyMaintenance 66649.714096069
scalar OsgEarthNet.uav[62] utilizationEnergyCharge 237282.11376953
scalar OsgEarthNet.uav[62] utilizationEnergyOverdrawMission 0
scalar OsgEarthNet.uav[62] utilizationEnergyOverdrawMaintenance 0
scalar OsgEarthNet.uav[62] utilizationCountMissions 52
scalar OsgEarthNet.uav[62] utilizationCountManeuversMission 1170
scalar OsgEarthNet.uav[62] utilizationCountManeuversMaintenance 105
scalar OsgEarthNet.uav[62] utilizationCountChargeState 52
scalar OsgEarthNet.uav[62] utilizationCountOverdrawnAfterMission 0
scalar OsgEarthNet.uav[62] utilizationCountIdleState 52
scalar OsgEarthNet.uav[62] utilizationFail 0
scalar OsgEarthNet.uav[62] simulationTime 259200
scalar OsgEarthNet.uav[63] utilizationSecMission 34743.224866842
scalar OsgEarthNet.uav[63] utilizationSecMaintenance 15009.384632072
scalar OsgEarthNet.uav[63] utilizationSecCharge 181583.4911068
scalar OsgEarthNet.uav[63] utilizationSecIdle 27863.898394284
scalar OsgEarthNet.uav[63] utilizationEnergyMission 169771.40193176
scalar OsgEarthNet.uav[63] utilizationEnergyMaintenance 68357.046722412
scalar OsgEarthNet.uav[63] utilizationEnergyCharge 235365.78930664
scalar OsgEarthNet.uav[63] utilizationEnergyOverdrawMission 0
scalar OsgEarthNet.uav[63] utilizationEnergyOverdrawMaintenance 0
scalar OsgEarthNet.uav[63] utilizationCountMissions 52
scalar OsgEarthNet.uav[63] utilizationCountManeuversMission 1166
scalar OsgEarthNet.uav[63] utilizationCountManeuversMaintenance 104
scalar OsgEarthNet.uav[63] utilizationCountChargeState 52
scalar OsgEarthNet.uav[63] utilizationCountOverdrawnAfterMission 0
scalar OsgEarthNet.uav[63] utilizationCountIdleState 50
scalar OsgEarthNet.uav[63] utilizationFail 0
scalar OsgEarthNet.uav[63] simulationTime 259200
scalar OsgEarthNet.uav[64] utilizationSecMission 31155.738285704
scalar OsgEarthNet.uav[64] utilizationSecMaintenance 17254.027088617
scalar OsgEarthNet.uav[64] utilizationSecCharge 185808.23362568
scalar OsgEarthNet.uav[64] utilizationSecIdle 24982
scalar OsgEarthNet.uav[64] utilizationEnergyMission 150063.80296326
scalar OsgEarthNet.uav[64] utilizationEnergyMaintenance 82110.934288025
scalar OsgEarthNet.uav[64] utilizationEnergyCharge 231181.82348633
scalar OsgEarthNet.uav[64] utilizationEnergyOverdrawMission 0
scalar OsgEarthNet.uav[64] utilizationEnergyOverdrawMaintenance 0
scalar OsgEarthNet.uav[64] utilizationCountMissions 58
scalar OsgEarthNet.uav[64] utilizationCountManeuversMission 846
scalar OsgEarthNet.uav[64] utilizationCountManeuversMaintenance 116
scalar OsgEarthNet.uav[64] utilizationCountChargeState 58
scalar OsgEarthNet.uav[64] utilizationCountOverdrawnAfterMission 0
scalar OsgEarthNet.uav[64] utilizationCountIdleState 58
scalar OsgEarthNet.uav[64] utilizationFail 0
scalar OsgEarthNet.uav[64] simulationTime 259200
scalar OsgEarthNet.uav[65] utilizationSecMission 35929.881141603
scalar OsgEarthNet.uav[65] utilizationSecMaintenance 13916.83213896
scalar OsgEarthNet.uav[65] utilizationSecCharge 181043.4489054
scalar OsgEarthNet.uav[65] utilizationSecIdle 28309.83681404
scalar OsgEarthNet.uav[65] utilizationEnergyMission 171510.37572479
scalar OsgEarthNet.uav[65] utilizationEnergyMaintenance 64117.579944611
scalar OsgEarthNet.uav[65] utilizationEnergyCharge 235904.75732422
scalar OsgEarthNet.uav[65] utilizationEnergyOverdrawMission 0
scalar OsgEarthNet.uav[65] utilizationEnergyOverdrawMaintenance 0
scalar OsgEarthNet.uav[65] utilizationCountMissions 51
scalar OsgEarthNet.uav[65] utilizationCountManeuversMission 1094
scalar OsgEarthNet.uav[65] utilizationCountManeuversMaintenance 102
scalar OsgEarthNet.uav[65] utilizationCountChargeState 51
scalar OsgEarthNet.uav[65] utilizationCountOverdrawnAfterMission 0
scalar OsgEarthNet.uav[65] utilizationCountIdleState 51
scalar OsgEarthNet.uav[65] utilizationFail 0
scalar OsgEarthNet.uav[65] simulationTime 259200
scalar OsgEarthNet.uav[66] utilizationSecMission 22480.369555114
scalar OsgEarthNet.uav[66] utilizationSecMaintenance 13159.890339725
scalar OsgEarthNet.uav[66] utilizationSecCharge 133043.21622665
scalar OsgEarthNet.uav[66] utilizationSecIdle 90516.522878507
scalar OsgEarthNet.uav[66] utilizationEnergyMission 106574.1054306
scalar OsgEarthNet.uav[66] utilizationEnergyMaintenance 62699.467823028
scalar OsgEarthNet.uav[66] utilizationEnergyCharge 171364.14453125
scalar OsgEarthNet.uav[66] utilizationEnergyOverdrawMission 0
scalar OsgEarthNet.uav[66] utilizationEnergyOverdrawMaintenance 0
scalar OsgEarthNet.uav[66] utilizationCountMissions 38
scalar OsgEarthNet.uav[66] utilizationCountManeuversMission 686
scalar OsgEarthNet.uav[66] utilizationCountManeuversMaintenance 76
scalar OsgEarthNet.uav[66] utilizationCountChargeState 38
scalar OsgEarthNet.uav[66] utilizationCountOverdrawnAfterMission 0
scalar OsgEarthNet.uav[66] utilizationCountIdleState 38
scalar OsgEarthNet.uav[66] utilizationFail 0
scalar OsgEarthNet.uav[66] simulationTime 259200
scalar OsgEarthNet.uav[67] utilizationSecMission 30085.268418866
scalar OsgEarthNet.uav[67] utilizationSecMaintenance 17893.866469741
scalar OsgEarthNet.uav[67] utilizationSecCharge 184398.85911139
scalar OsgEarthNet.uav[67] utilizationSecIdle 26822.005
scalar OsgEarthNet.uav[67] utilizationEnergyMission 143901.93331909
scalar OsgEarthNet.uav[67] utilizationEnergyMaintenance 85154.945518494
scalar OsgEarthNet.uav[67] utilizationEnergyCharge 229496.89379883
scalar OsgEarthNet.uav[67] utilizationEnergyOverdrawMission 0
scalar OsgEarthNet.uav[67] utilizationEnergyOverdrawMaintenance 0
scalar OsgEarthNet.uav[67] utilizationCountMissions 58
scalar OsgEarthNet.uav[67] utilizationCountManeuversMission 840
scalar OsgEarthNet.uav[67] utilizationCountManeuversMaintenance 116
scalar OsgEarthNet.uav[67] utilizationCountChargeState 58
scalar OsgEarthNet.uav[67] utilizationCountOverdrawnAfterMission 0
scalar OsgEarthNet.uav[67] utilizationCountIdleState 57
scalar OsgEarthNet.uav[67] utilizationFail 0
scalar OsgEarthNet.uav[67] simulationTime 259200
scalar OsgEarthNet.uav[68] utilizationSecMission 34308.143099015
scalar OsgEarthNet.uav[68] utilizationSecMaintenance 15351.971423809
scalar OsgEarthNet.uav[68] utilizationSecCharge 183110
scalar OsgEarthNet.uav[68] utilizationSecIdle 26429.884477176
scalar OsgEarthNet.uav[68] utilizationEnergyMission 166305.60835266
scalar OsgEarthNet.uav[68] utilizationEnergyMaintenance 70642.549087524
scalar OsgEarthNet.uav[68] utilizationEnergyCharge 237030.39990234
scalar OsgEarthNet.uav[68] utilizationEnergyOverdrawMission 0
scalar OsgEarthNet.uav[68] utilizationEnergyOverdrawMaintenance 0
scalar OsgEarthNet.uav[68] utilizationCountMissions 52
scalar OsgEarthNet.uav[68] utilizationCountManeuversMission 1176
scalar OsgEarthNet.uav[68] utilizationCountManeuversMaintenance 104
scalar OsgEarthNet.uav[68] utilizationCountChargeState 52
scalar OsgEarthNet.uav[68] utilizationCountOverdrawnAfterMission 0
scalar OsgEarthNet.uav[68] utilizationCountIdleState 52
scalar OsgEarthNet.uav[68] utilizationFail 0
scalar OsgEarthNet.uav[68] simulationTime 259200
scalar OsgEarthNet.uav[69] utilizationSecMission 24266.390366035
scalar OsgEarthNet.uav[69] utilizationSecMaintenance 14801.46882082
scalar OsgEarthNet.uav[69] utilizationSecCharge 144380
scalar OsgEarthNet.uav[69] utilizationSecIdle 75752.139813144
scalar OsgEarthNet.uav[69] utilizationEnergyMission 119196.66007922
scalar OsgEarthNet.uav[69] utilizationEnergyMaintenance 70585.12197113
scalar OsgEarthNet.uav[69] utilizationEnergyCharge 186211.4609375
scalar OsgEarthNet.uav[69] utilizationEnergyOverdrawMission 0
scalar OsgEarthNet.uav[69] utilizationEnergyOverdrawMaintenance 0
scalar OsgEarthNet.uav[69] utilizationCountMissions 41
scalar OsgEarthNet.uav[69] utilizationCountManeuversMission 797
scalar OsgEarthNet.uav[69] utilizationCountManeuversMaintenance 83
scalar OsgEarthNet.uav[69] utilizationCountChargeState 41
scalar OsgEarthNet.uav[69] utilizationCountOverdrawnAfterMission 0
scalar OsgEarthNet.uav[69] utilizationCountIdleState 42
scalar OsgEarthNet.uav[69] utilizationFail 0
scalar OsgEarthNet.uav[69] simulationTime 259200
scalar OsgEarthNet.uav[70] utilizationSecMission 22146.876678383
scalar OsgEarthNet.uav[70] utilizationSecMaintenance 15732.464654888
scalar OsgEarthNet.uav[70] utilizationSecCharge 140017.89170139
scalar OsgEarthNet.uav[70] utilizationSecIdle 81302.765965339
scalar OsgEarthNet.uav[70] utilizationEnergyMission 108105.89819717
scalar OsgEarthNet.uav[70] utilizationEnergyMaintenance 74711.720573425
scalar OsgEarthNet.uav[70] utilizationEnergyCharge 180331.61694336
scalar OsgEarthNet.uav[70] utilizationEnergyOverdrawMission 0
scalar OsgEarthNet.uav[70] utilizationEnergyOverdrawMaintenance 0
scalar OsgEarthNet.uav[70] utilizationCountMissions 41
scalar OsgEarthNet.uav[70] utilizationCountManeuversMission 821
scalar OsgEarthNet.uav[70] utilizationCountManeuversMaintenance 82
scalar OsgEarthNet.uav[70] utilizationCountChargeState 41
scalar OsgEarthNet.uav[70] utilizationCountOverdrawnAfterMission 0
scalar OsgEarthNet.uav[70] utilizationCountIdleState 41
scalar OsgEarthNet.uav[70] utilizationFail 0
scalar OsgEarthNet.uav[70] simulationTime 259200
scalar OsgEarthNet.uav[71] utilizationSecMission 29210.529261348
scalar OsgEarthNet.uav[71] utilizationSecMaintenance 18437.795595841
scalar OsgEarthNet.uav[71] utilizationSecCharge 183681.65386867
scalar OsgEarthNet.uav[71] utilizationSecIdle 27870.020274145
scalar OsgEarthNet.uav[71] utilizationEnergyMission 141023.96724319
scalar OsgEarthNet.uav[71] utilizationEnergyMaintenance 87555.835514069
scalar OsgEarthNet.uav[71] utilizationEnergyCharge 228493.21533203
scalar OsgEarthNet.uav[71] utilizationEnergyOverdrawMission 0
scalar OsgEarthNet.uav[71] utilizationEnergyOverdrawMaintenance 0
scalar OsgEarthNet.uav[71] utilizationCountMissions 58
scalar OsgEarthNet.uav[71] utilizationCountManeuversMission 907
scalar OsgEarthNet.uav[71] utilizationCountManeuversMaintenance 116
scalar OsgEarthNet.uav[71] utilizationCountChargeState 58
scalar OsgEarthNet.uav[71] utilizationCountOverdrawnAfterMission 0
scalar OsgEarthNet.uav[71] utilizationCountIdleState 57
scalar OsgEarthNet.uav[71] utilizationFail 0
scalar OsgEarthNet.uav[71] simulationTime 259200
scalar OsgEarthNet.uav[72] utilizationSecMission 35215.690959048
scalar OsgEarthNet.uav[72] utilizationSecMaintenance 14840.94562938
scalar OsgEarthNet.uav[72] utilizationSecCharge 183521.36041157
scalar OsgEarthNet.uav[72] utilizationSecIdle 25622.002
scalar OsgEarthNet.uav[72] utilizationEnergyMission 173862.5990715
scalar OsgEarthNet.uav[72] utilizationEnergyMaintenance 68538.806930542
scalar OsgEarthNet.uav[72] utilizationEnergyCharge 238945.79541016
scalar OsgEarthNet.uav[72] utilizationEnergyOverdrawMission 0
scalar OsgEarthNet.uav[72] utilizationEnergyOverdrawMaintenance 0
scalar OsgEarthNet.uav[72] utilizationCountMissions 52
scalar OsgEarthNet.uav[72] utilizationCountManeuversMission 1185
scalar OsgEarthNet.uav[72] utilizationCountManeuversMaintenance 104
scalar OsgEarthNet.uav[72] utilizationCountChargeState 52
scalar OsgEarthNet.uav[72] utilizationCountOverdrawnAfterMission 0
scalar OsgEarthNet.uav[72] utilizationCountIdleState 50
scalar OsgEarthNet.uav[72] utilizationFail 0
scalar OsgEarthNet.uav[72] simulationTime 259200
scalar OsgEarthNet.uav[73] utilizationSecMission 22637.868944793
scalar OsgEarthNet.uav[73] utilizationSecMaintenance 15509.136266584
scalar OsgEarthNet.uav[73] utilizationSecCharge 141050.98678862
scalar OsgEarthNet.uav[73] utilizationSecIdle 80002.007
scalar OsgEarthNet.uav[73] utilizationEnergyMission 111425.62609482
scalar OsgEarthNet.uav[73] utilizationEnergyMaintenance 73942.649394989
scalar OsgEarthNet.uav[73] utilizationEnergyCharge 181981.08789062
scalar OsgEarthNet.uav[73] utilizationEnergyOverdrawMission 0
scalar OsgEarthNet.uav[73] utilizationEnergyOverdrawMaintenance 0
scalar OsgEarthNet.uav[73] utilizationCountMissions 41
scalar OsgEarthNet.uav[73] utilizationCountManeuversMission 798
scalar OsgEarthNet.uav[73] utilizationCountManeuversMaintenance 82
scalar OsgEarthNet.uav[73] utilizationCountChargeState 41
scalar OsgEarthNet.uav[73] utilizationCountOverdrawnAfterMission 0
scalar OsgEarthNet.uav[73] utilizationCountIdleState 41
scalar OsgEarthNet.uav[73] utilizationFail 0
scalar OsgEarthNet.uav[73] simulationTime 259200
scalar OsgEarthNet.uav[74] utilizationSecMission 29367.821261016
scalar OsgEarthNet.uav[74] utilizationSecMaintenance 18513.320419759
scalar OsgEarthNet.uav[74] utilizationSecCharge 184452.85207919
scalar OsgEarthNet.uav[74] utilizationSecIdle 26866.005240035
scalar OsgEarthNet.uav[74] utilizationEnergyMission 141225.62953949
scalar OsgEarthNet.uav[74] utilizationEnergyMaintenance 87376.912033081
scalar OsgEarthNet.uav[74] utilizationEnergyCharge 229486.17797852
scalar OsgEarthNet.uav[74] utilizationEnergyOverdrawMission 0
scalar OsgEarthNet.uav[74] utilizationEnergyOverdrawMaintenance 0
scalar OsgEarthNet.uav[74] utilizationCountMissions 58
scalar OsgEarthNet.uav[74] utilizationCountManeuversMission 867
scalar OsgEarthNet.uav[74] utilizationCountManeuversMaintenance 116
scalar OsgEarthNet.uav[74] utilizationCountChargeState 58
scalar OsgEarthNet.uav[74] utilizationCountOverdrawnAfterMission 0
scalar OsgEarthNet.uav[74] utilizationCountIdleState 57
scalar OsgEarthNet.uav[74] utilizationFail 0
scalar OsgEarthNet.uav[74] simulationTime 259200
scalar OsgEarthNet.uav[75] utilizationSecMission 35953.608856056
scalar OsgEarthNet.uav[75] utilizationSecMaintenance 14638.56762169
scalar OsgEarthNet.uav[75] utilizationSecCharge 182025.82152225
scalar OsgEarthNet.uav[75] utilizationSecIdle 26582.001
scalar OsgEarthNet.uav[75] utilizationEnergyMission 173050.89316559
scalar OsgEarthNet.uav[75] utilizationEnergyMaintenance 67451.914535522
scalar OsgEarthNet.uav[75] utilizationEnergyCharge 236846.56665039
scalar OsgEarthNet.uav[75] utilizationEnergyOverdrawMission 0
scalar OsgEarthNet.uav[75] utilizationEnergyOverdrawMaintenance 0
scalar OsgEarthNet.uav[75] utilizationCountMissions 52
scalar OsgEarthNet.uav[75] utilizationCountManeuversMission 1034
scalar OsgEarthNet.uav[75] utilizationCountManeuversMaintenance 104
scalar OsgEarthNet.uav[75] utilizationCountChargeState 52
scalar OsgEarthNet.uav[75] utilizationCountOverdrawnAfterMission 0
scalar OsgEarthNet.uav[75] utilizationCountIdleState 51
scalar OsgEarthNet.uav[75] utilizationFail 0
scalar OsgEarthNet.uav[75] simulationTime 259200
scalar OsgEarthNet.uav[76] utilizationSecMission 24140.260480035
scalar OsgEarthNet.uav[76] utilizationSecMaintenance 14854.950360867
scalar OsgEarthNet.uav[76] utilizationSecCharge 141072.7791591
scalar OsgEarthNet.uav[76] utilizationSecIdle 79132.009
scalar OsgEarthNet.uav[76] utilizationEnergyMission 115959.79793167
scalar OsgEarthNet.uav[76] utilizationEnergyMaintenance 70538.358470917
scalar OsgEarthNet.uav[76] utilizationEnergyCharge 181935.95996094
scalar OsgEarthNet.uav[76] utilizationEnergyOverdrawMission 0
scalar OsgEarthNet.uav[76] utilizationEnergyOverdrawMaintenance 0
scalar OsgEarthNet.uav[76] utilizationCountMissions 41
scalar OsgEarthNet.uav[76] utilizationCountManeuversMission 786
scalar OsgEarthNet.uav[76] utilizationCountManeuversMaintenance 82
scalar OsgEarthNet.uav[76] utilizationCountChargeState 41
scalar OsgEarthNet.uav[76] utilizationCountOverdrawnAfterMission 0
scalar OsgEarthNet.uav[76] utilizationCountIdleState 41
scalar OsgEarthNet.uav[76] utilizationFail 0
scalar OsgEarthNet.uav[76] simulationTime 259200
scalar OsgEarthNet.uav[77] utilizationSecMission 30116.783675401
scalar OsgEarthNet.uav[77] utilizationSecMaintenance 18060.518224803
scalar OsgEarthNet.uav[77] utilizationSecCharge 185220.6950998
scalar OsgEarthNet.uav[77] utilizationSecIdle 25802.002
scalar OsgEarthNet.uav[77] utilizationEnergyMission 148117.67998886
scalar OsgEarthNet.uav[77] utilizationEnergyMaintenance 86660.483940124
scalar OsgEarthNet.uav[77] utilizationEnergyCharge 231178.51599121
scalar OsgEarthNet.uav[77] utilizationEnergyOverdrawMission 0
scalar OsgEarthNet.uav[77] utilizationEnergyOverdrawMaintenance 0
scalar OsgEarthNet.uav[77] utilizationCountMissions 58
scalar OsgEarthNet.uav[77] utilizationCountManeuversMission 903
scalar OsgEarthNet.uav[77] utilizationCountManeuversMaintenance 116
scalar OsgEarthNet.uav[77] utilizationCountChargeState 58
scalar OsgEarthNet.uav[77] utilizationCountOverdrawnAfterMission 0
scalar OsgEarthNet.uav[77] utilizationCountIdleState 58
scalar OsgEarthNet.uav[77] utilizationFail 0
scalar OsgEarthNet.uav[77] simulationTime 259200
scalar OsgEarthNet.uav[78] utilizationSecMission 36062.622347053
scalar OsgEarthNet.uav[78] utilizationSecMaintenance 14541.605238282
scalar OsgEarthNet.uav[78] utilizationSecCharge 182353.77041466
scalar OsgEarthNet.uav[78] utilizationSecIdle 26242.001
scalar OsgEarthNet.uav[78] utilizationEnergyMission 174939.49465561
scalar OsgEarthNet.uav[78] utilizationEnergyMaintenance 66197.348815918
scalar OsgEarthNet.uav[78] utilizationEnergyCharge 237770.97729492
scalar OsgEarthNet.uav[78] utilizationEnergyOverdrawMission 0
scalar OsgEarthNet.uav[78] utilizationEnergyOverdrawMaintenance 0
scalar OsgEarthNet.uav[78] utilizationCountMissions 52
scalar OsgEarthNet.uav[78] utilizationCountManeuversMission 1130
scalar OsgEarthNet.uav[78] utilizationCountManeuversMaintenance 104
scalar OsgEarthNet.uav[78] utilizationCountChargeState 52
scalar OsgEarthNet.uav[78] utilizationCountOverdrawnAfterMission 0
scalar OsgEarthNet.uav[78] utilizationCountIdleState 50
scalar OsgEarthNet.uav[78] utilizationFail 0
scalar OsgEarthNet.uav[78] simulationTime 259200
scalar OsgEarthNet.uav[79] utilizationSecMission 23700.260480035
scalar OsgEarthNet.uav[79] utilizationSecMaintenance 14952.317682836
scalar OsgEarthNet.uav[79] utilizationSecCharge 143155.41783713
scalar OsgEarthNet.uav[79] utilizationSecIdle 77392.003
scalar OsgEarthNet.uav[79] utilizationEnergyMission 115428.93520355
scalar OsgEarthNet.uav[79] utilizationEnergyMaintenance 71259.545524597
scalar OsgEarthNet.uav[79] utilizationEnergyCharge 186091.19873047
scalar OsgEarthNet.uav[79] utilizationEnergyOverdrawMission 0
scalar OsgEarthNet.uav[79] utilizationEnergyOverdrawMaintenance 0
scalar OsgEarthNet.uav[79] utilizationCountMissions 41
scalar OsgEarthNet.uav[79] utilizationCountManeuversMission 764
scalar OsgEarthNet.uav[79] utilizationCountManeuversMaintenance 82
scalar OsgEarthNet.uav[79] utilizationCountChargeState 41
scalar OsgEarthNet.uav[79] utilizationCountOverdrawnAfterMission 0
scalar OsgEarthNet.uav[79] utilizationCountIdleState 41
scalar OsgEarthNet.uav[79] utilizationFail 0
scalar OsgEarthNet.uav[79] simulationTime 259200
scalar OsgEarthNet.cs[0] usedPower 4005765.5220545
scalar OsgEarthNet.cs[0] chargedPower 4005765.5220545
scalar OsgEarthNet.cs[0] chargedMobileNodes 878
scalar OsgEarthNet.cs[0] reservations 891
scalar OsgEarthNet.cs[1] usedPower 5701864.57724
scalar OsgEarthNet.cs[1] chargedPower 5701864.57724
scalar OsgEarthNet.cs[1] chargedMobileNodes 1383
scalar OsgEarthNet.cs[1] reservations 1414
scalar OsgEarthNet.cs[2] usedPower 6941497.2004688
scalar OsgEarthNet.cs[2] chargedPower 6941497.2004688
scalar OsgEarthNet.cs[2] chargedMobileNodes 1474
scalar OsgEarthNet.cs[2] reservations 1517

