version 2
run Szenario_Hotel_Gabelbach-174-20180712-04:16:05-16932
attr configname Szenario_Hotel_Gabelbach
attr datetime 20180712-04:16:05
attr experiment Szenario_Hotel_Gabelbach
attr inifile omnetpp.ini
attr iterationvars "$replM=2, $biWeight=0.35, $replSearchM=1, $numUAVs=80"
attr iterationvarsf replM=2,biWeight=0.35,replSearchM=1,numUAVs=80-
attr measurement "$replM=2, $biWeight=0.35, $replSearchM=1, $numUAVs=80"
attr network OsgEarthNet
attr processid 16932
attr repetition 6
attr replication #6
attr resultdir results
attr runnumber 174
attr seedset 174
itervar biWeight 0.35
itervar numUAVs 80
itervar replM 2
itervar replSearchM 1
param *.osgEarthScene.scene "\"Szenario_Hotel_Gabelbach.earth\""
param *.playgroundLatitude 50.6830269
param *.playgroundLongitude 10.8538055
param *.playgroundWidth 3500m
param *.playgroundHeight 3500m
param *.cs[0].posX 3537m
param *.cs[0].posY 965m
param *.cs[0].posZ 538m
param *.cs[1].posX 312m
param *.cs[1].posY 1262m
param *.cs[1].posZ 539m
param *.cs[2].posX 2185m
param *.cs[2].posY 3026m
param *.cs[2].posZ 777m
param *.cs[3].posX 10m
param *.cs[3].posY 2200m
param *.cs[3].posZ 560m
param *.cs[4].posX 750m
param *.cs[4].posY 200m
param *.cs[4].posZ 540m
param *.cs[5].posX 2450m
param *.cs[5].posY 180m
param *.cs[5].posZ 524m
param *.cs[6].posX 3140m
param *.cs[6].posY 1790m
param *.cs[6].posZ 606m
param *.numCSs 3
param *.uav[*].replacementMethod 2
param *.uav[*].weightedSumWeight 0.35
param *.missionControl.replacementSearchMethod 1
param *.numUAVs 80
param *.numCSs 3
param *.numUAVs 100
param *.*.timeStep 10s
param *.uav[*].commandPreviewCommandCount 20
param *.missionControl.missionFiles "\"missions\\\\Szenario_WB_Hotel_Gabelbach_Mission_Hotel.waypoints,missions\\\\Szenario_WB_Hotel_Gabelbach_Mission_Kickelhahn.waypoints,missions\\\\Szenario_WB_Hotel_Gabelbach_Mission_Ilmenau_Sportplatz.waypoints,missions\\\\Szenario_WB_Hotel_Gabelbach_Mission_Manebach_Mitte.waypoints,missions\\\\Szenario_WB_Hotel_Gabelbach_Mission_Manebach_Sued.waypoints,missions\\\\Szenario_WB_Hotel_Gabelbach_Hover_HoheSchlaufe.waypoints,missions\\\\Szenario_WB_Hotel_Gabelbach_Hover_Kickelhahn.waypoints,missions\\\\Szenario_WB_Hotel_Gabelbach_Hover_Gabelbachskopf.waypoints,missions\\\\Szenario_WB_Hotel_Gabelbach_Hover_Dachskopf.waypoints\""
param *.uav[0].startX 3537m
param *.uav[0].startY 965m
param *.uav[0].startZ 539m
param *.uav[1].startX 312m
param *.uav[1].startY 1262m
param *.uav[1].startZ 540m
param *.uav[2].startX 2185m
param *.uav[2].startY 3026m
param *.uav[2].startZ 778m
param *.uav[3].startX 3537m
param *.uav[3].startY 965m
param *.uav[3].startZ 539m
param *.uav[4].startX 312m
param *.uav[4].startY 1262m
param *.uav[4].startZ 540m
param *.uav[5].startX 2185m
param *.uav[5].startY 3026m
param *.uav[5].startZ 778m
param *.uav[6].startX 3537m
param *.uav[6].startY 965m
param *.uav[6].startZ 539m
param *.uav[7].startX 312m
param *.uav[7].startY 1262m
param *.uav[7].startZ 540m
param *.uav[8].startX 2185m
param *.uav[8].startY 3026m
param *.uav[8].startZ 778m
param *.uav[9].startX 3537m
param *.uav[9].startY 965m
param *.uav[9].startZ 539m
param *.uav[10].startX 3537m
param *.uav[10].startY 965m
param *.uav[10].startZ 539m
param *.uav[11].startX 312m
param *.uav[11].startY 1262m
param *.uav[11].startZ 540m
param *.uav[12].startX 2185m
param *.uav[12].startY 3026m
param *.uav[12].startZ 778m
param *.uav[13].startX 3537m
param *.uav[13].startY 965m
param *.uav[13].startZ 539m
param *.uav[14].startX 312m
param *.uav[14].startY 1262m
param *.uav[14].startZ 540m
param *.uav[15].startX 2185m
param *.uav[15].startY 3026m
param *.uav[15].startZ 778m
param *.uav[16].startX 3537m
param *.uav[16].startY 965m
param *.uav[16].startZ 539m
param *.uav[17].startX 312m
param *.uav[17].startY 1262m
param *.uav[17].startZ 540m
param *.uav[18].startX 2185m
param *.uav[18].startY 3026m
param *.uav[18].startZ 778m
param *.uav[19].startX 3537m
param *.uav[19].startY 965m
param *.uav[19].startZ 539m
param *.uav[20].startX 3537m
param *.uav[20].startY 965m
param *.uav[20].startZ 539m
param *.uav[21].startX 312m
param *.uav[21].startY 1262m
param *.uav[21].startZ 540m
param *.uav[22].startX 2185m
param *.uav[22].startY 3026m
param *.uav[22].startZ 778m
param *.uav[23].startX 3537m
param *.uav[23].startY 965m
param *.uav[23].startZ 539m
param *.uav[24].startX 312m
param *.uav[24].startY 1262m
param *.uav[24].startZ 540m
param *.uav[25].startX 2185m
param *.uav[25].startY 3026m
param *.uav[25].startZ 778m
param *.uav[26].startX 3537m
param *.uav[26].startY 965m
param *.uav[26].startZ 539m
param *.uav[27].startX 312m
param *.uav[27].startY 1262m
param *.uav[27].startZ 540m
param *.uav[28].startX 2185m
param *.uav[28].startY 3026m
param *.uav[28].startZ 778m
param *.uav[29].startX 3537m
param *.uav[29].startY 965m
param *.uav[29].startZ 539m
param *.uav[30].startX 3537m
param *.uav[30].startY 965m
param *.uav[30].startZ 539m
param *.uav[31].startX 312m
param *.uav[31].startY 1262m
param *.uav[31].startZ 540m
param *.uav[32].startX 2185m
param *.uav[32].startY 3026m
param *.uav[32].startZ 778m
param *.uav[33].startX 3537m
param *.uav[33].startY 965m
param *.uav[33].startZ 539m
param *.uav[34].startX 312m
param *.uav[34].startY 1262m
param *.uav[34].startZ 540m
param *.uav[35].startX 2185m
param *.uav[35].startY 3026m
param *.uav[35].startZ 778m
param *.uav[36].startX 3537m
param *.uav[36].startY 965m
param *.uav[36].startZ 539m
param *.uav[37].startX 312m
param *.uav[37].startY 1262m
param *.uav[37].startZ 540m
param *.uav[38].startX 2185m
param *.uav[38].startY 3026m
param *.uav[38].startZ 778m
param *.uav[39].startX 3537m
param *.uav[39].startY 965m
param *.uav[39].startZ 539m
param *.uav[40].startX 3537m
param *.uav[40].startY 965m
param *.uav[40].startZ 539m
param *.uav[41].startX 312m
param *.uav[41].startY 1262m
param *.uav[41].startZ 540m
param *.uav[42].startX 2185m
param *.uav[42].startY 3026m
param *.uav[42].startZ 778m
param *.uav[43].startX 3537m
param *.uav[43].startY 965m
param *.uav[43].startZ 539m
param *.uav[44].startX 312m
param *.uav[44].startY 1262m
param *.uav[44].startZ 540m
param *.uav[45].startX 2185m
param *.uav[45].startY 3026m
param *.uav[45].startZ 778m
param *.uav[46].startX 3537m
param *.uav[46].startY 965m
param *.uav[46].startZ 539m
param *.uav[47].startX 312m
param *.uav[47].startY 1262m
param *.uav[47].startZ 540m
param *.uav[48].startX 2185m
param *.uav[48].startY 3026m
param *.uav[48].startZ 778m
param *.uav[49].startX 3537m
param *.uav[49].startY 965m
param *.uav[49].startZ 539m
param *.uav[50].startX 3537m
param *.uav[50].startY 965m
param *.uav[50].startZ 539m
param *.uav[51].startX 312m
param *.uav[51].startY 1262m
param *.uav[51].startZ 540m
param *.uav[52].startX 2185m
param *.uav[52].startY 3026m
param *.uav[52].startZ 778m
param *.uav[53].startX 3537m
param *.uav[53].startY 965m
param *.uav[53].startZ 539m
param *.uav[54].startX 312m
param *.uav[54].startY 1262m
param *.uav[54].startZ 540m
param *.uav[55].startX 2185m
param *.uav[55].startY 3026m
param *.uav[55].startZ 778m
param *.uav[56].startX 3537m
param *.uav[56].startY 965m
param *.uav[56].startZ 539m
param *.uav[57].startX 312m
param *.uav[57].startY 1262m
param *.uav[57].startZ 540m
param *.uav[58].startX 2185m
param *.uav[58].startY 3026m
param *.uav[58].startZ 778m
param *.uav[59].startX 3537m
param *.uav[59].startY 965m
param *.uav[59].startZ 539m
param *.uav[60].startX 3537m
param *.uav[60].startY 965m
param *.uav[60].startZ 539m
param *.uav[61].startX 312m
param *.uav[61].startY 1262m
param *.uav[61].startZ 540m
param *.uav[62].startX 2185m
param *.uav[62].startY 3026m
param *.uav[62].startZ 778m
param *.uav[63].startX 3537m
param *.uav[63].startY 965m
param *.uav[63].startZ 539m
param *.uav[64].startX 312m
param *.uav[64].startY 1262m
param *.uav[64].startZ 540m
param *.uav[65].startX 2185m
param *.uav[65].startY 3026m
param *.uav[65].startZ 778m
param *.uav[66].startX 3537m
param *.uav[66].startY 965m
param *.uav[66].startZ 539m
param *.uav[67].startX 312m
param *.uav[67].startY 1262m
param *.uav[67].startZ 540m
param *.uav[68].startX 2185m
param *.uav[68].startY 3026m
param *.uav[68].startZ 778m
param *.uav[69].startX 3537m
param *.uav[69].startY 965m
param *.uav[69].startZ 539m
param *.uav[70].startX 3537m
param *.uav[70].startY 965m
param *.uav[70].startZ 539m
param *.uav[71].startX 312m
param *.uav[71].startY 1262m
param *.uav[71].startZ 540m
param *.uav[72].startX 2185m
param *.uav[72].startY 3026m
param *.uav[72].startZ 778m
param *.uav[73].startX 3537m
param *.uav[73].startY 965m
param *.uav[73].startZ 539m
param *.uav[74].startX 312m
param *.uav[74].startY 1262m
param *.uav[74].startZ 540m
param *.uav[75].startX 2185m
param *.uav[75].startY 3026m
param *.uav[75].startZ 778m
param *.uav[76].startX 3537m
param *.uav[76].startY 965m
param *.uav[76].startZ 539m
param *.uav[77].startX 312m
param *.uav[77].startY 1262m
param *.uav[77].startZ 540m
param *.uav[78].startX 2185m
param *.uav[78].startY 3026m
param *.uav[78].startZ 778m
param *.uav[79].startX 3537m
param *.uav[79].startY 965m
param *.uav[79].startZ 539m
param *.uav[80].startX 3537m
param *.uav[80].startY 965m
param *.uav[80].startZ 539m
param *.uav[81].startX 312m
param *.uav[81].startY 1262m
param *.uav[81].startZ 540m
param *.uav[82].startX 2185m
param *.uav[82].startY 3026m
param *.uav[82].startZ 778m
param *.uav[83].startX 3537m
param *.uav[83].startY 965m
param *.uav[83].startZ 539m
param *.uav[84].startX 312m
param *.uav[84].startY 1262m
param *.uav[84].startZ 540m
param *.uav[85].startX 2185m
param *.uav[85].startY 3026m
param *.uav[85].startZ 778m
param *.uav[86].startX 3537m
param *.uav[86].startY 965m
param *.uav[86].startZ 539m
param *.uav[87].startX 312m
param *.uav[87].startY 1262m
param *.uav[87].startZ 540m
param *.uav[88].startX 2185m
param *.uav[88].startY 3026m
param *.uav[88].startZ 778m
param *.uav[89].startX 3537m
param *.uav[89].startY 965m
param *.uav[89].startZ 539m
param *.uav[90].startX 3537m
param *.uav[90].startY 965m
param *.uav[90].startZ 539m
param *.uav[91].startX 312m
param *.uav[91].startY 1262m
param *.uav[91].startZ 540m
param *.uav[92].startX 2185m
param *.uav[92].startY 3026m
param *.uav[92].startZ 778m
param *.uav[93].startX 3537m
param *.uav[93].startY 965m
param *.uav[93].startZ 539m
param *.uav[94].startX 312m
param *.uav[94].startY 1262m
param *.uav[94].startZ 540m
param *.uav[95].startX 2185m
param *.uav[95].startY 3026m
param *.uav[95].startZ 778m
param *.uav[96].startX 3537m
param *.uav[96].startY 965m
param *.uav[96].startZ 539m
param *.uav[97].startX 312m
param *.uav[97].startY 1262m
param *.uav[97].startZ 540m
param *.uav[98].startX 2185m
param *.uav[98].startY 3026m
param *.uav[98].startZ 778m
param *.uav[99].startX 3537m
param *.uav[99].startY 965m
param *.uav[99].startZ 539m
param *.osgEarthScene.scene "\"boston.earth\""
param *.playgroundLatitude 42.3558
param *.playgroundLongitude -71.0677
param *.playgroundWidth 400m
param *.playgroundHeight 200m
param *.channelController.connectionColor "\"#0000FF40\""
param *.channelController.showConnections false
param *.uav[*].modelURL "\"quadrocopter.small.obj.15.scale.0,0,90.rot\""
param *.uav[*].labelColor "\"#FF7C00CC\""
param *.uav[*].label2Color "\"#FF7C00EE\""
param *.uav[*].batteryCapacity 5200mAh
param *.uav[*].batteryRemaining uav[index].batteryCapacity
param *.uav[*].predictionQuantile 0.95
param *.uav[*].replacementMethod 2
param *.uav[*].weightedSumWeight 0.5
param *.cs[*].modelURL "\"chargingstation_v1.osgt.2.scale.0,0,0.rot.0,0,-15e-1.trans\""
param *.cs[*].spotsWaiting 999
param *.cs[*].spotsCharging 999
param *.cs[*].chargeEffectivenessPercentage 100
param *.cs[*].nonLinearPhaseStartPercentage 85
param *.cs[*].chargeCurrent 6.0A
param *.cs[*].prioritizeFastCharge true
param *.missionControl.replacementSearchMethod 0
param *.*.timeStep 9s

scalar OsgEarthNet.uav[0] utilizationSecMission 18426.251525803
scalar OsgEarthNet.uav[0] utilizationSecMaintenance 12659.327002169
scalar OsgEarthNet.uav[0] utilizationSecCharge 116142.42047203
scalar OsgEarthNet.uav[0] utilizationSecIdle 111972
scalar OsgEarthNet.uav[0] utilizationEnergyMission 91144.888374329
scalar OsgEarthNet.uav[0] utilizationEnergyMaintenance 60053.974254608
scalar OsgEarthNet.uav[0] utilizationEnergyCharge 150465.17480469
scalar OsgEarthNet.uav[0] utilizationEnergyOverdrawMission 0
scalar OsgEarthNet.uav[0] utilizationEnergyOverdrawMaintenance 0
scalar OsgEarthNet.uav[0] utilizationCountMissions 33
scalar OsgEarthNet.uav[0] utilizationCountManeuversMission 661
scalar OsgEarthNet.uav[0] utilizationCountManeuversMaintenance 66
scalar OsgEarthNet.uav[0] utilizationCountChargeState 33
scalar OsgEarthNet.uav[0] utilizationCountOverdrawnAfterMission 0
scalar OsgEarthNet.uav[0] utilizationCountIdleState 33
scalar OsgEarthNet.uav[0] utilizationFail 0
scalar OsgEarthNet.uav[0] simulationTime 259200
scalar OsgEarthNet.uav[1] utilizationSecMission 36087.813902765
scalar OsgEarthNet.uav[1] utilizationSecMaintenance 13598.815326991
scalar OsgEarthNet.uav[1] utilizationSecCharge 178687.92668155
scalar OsgEarthNet.uav[1] utilizationSecIdle 30825.443088691
scalar OsgEarthNet.uav[1] utilizationEnergyMission 171937.47817993
scalar OsgEarthNet.uav[1] utilizationEnergyMaintenance 62148.352466583
scalar OsgEarthNet.uav[1] utilizationEnergyCharge 231718.50259399
scalar OsgEarthNet.uav[1] utilizationEnergyOverdrawMission 0
scalar OsgEarthNet.uav[1] utilizationEnergyOverdrawMaintenance 0
scalar OsgEarthNet.uav[1] utilizationCountMissions 51
scalar OsgEarthNet.uav[1] utilizationCountManeuversMission 1098
scalar OsgEarthNet.uav[1] utilizationCountManeuversMaintenance 102
scalar OsgEarthNet.uav[1] utilizationCountChargeState 51
scalar OsgEarthNet.uav[1] utilizationCountOverdrawnAfterMission 0
scalar OsgEarthNet.uav[1] utilizationCountIdleState 51
scalar OsgEarthNet.uav[1] utilizationFail 0
scalar OsgEarthNet.uav[1] simulationTime 259200
scalar OsgEarthNet.uav[2] utilizationSecMission 35159.517050867
scalar OsgEarthNet.uav[2] utilizationSecMaintenance 15086.388934964
scalar OsgEarthNet.uav[2] utilizationSecCharge 184650
scalar OsgEarthNet.uav[2] utilizationSecIdle 24304.093014168
scalar OsgEarthNet.uav[2] utilizationEnergyMission 170797.00579834
scalar OsgEarthNet.uav[2] utilizationEnergyMaintenance 69203.15145874
scalar OsgEarthNet.uav[2] utilizationEnergyCharge 238746.94482422
scalar OsgEarthNet.uav[2] utilizationEnergyOverdrawMission 0
scalar OsgEarthNet.uav[2] utilizationEnergyOverdrawMaintenance 0
scalar OsgEarthNet.uav[2] utilizationCountMissions 52
scalar OsgEarthNet.uav[2] utilizationCountManeuversMission 1112
scalar OsgEarthNet.uav[2] utilizationCountManeuversMaintenance 104
scalar OsgEarthNet.uav[2] utilizationCountChargeState 52
scalar OsgEarthNet.uav[2] utilizationCountOverdrawnAfterMission 0
scalar OsgEarthNet.uav[2] utilizationCountIdleState 52
scalar OsgEarthNet.uav[2] utilizationFail 0
scalar OsgEarthNet.uav[2] simulationTime 259200
scalar OsgEarthNet.uav[3] utilizationSecMission 12594.118029311
scalar OsgEarthNet.uav[3] utilizationSecMaintenance 8718.736317663
scalar OsgEarthNet.uav[3] utilizationSecCharge 80700
scalar OsgEarthNet.uav[3] utilizationSecIdle 157187.14465303
scalar OsgEarthNet.uav[3] utilizationEnergyMission 61275.779865265
scalar OsgEarthNet.uav[3] utilizationEnergyMaintenance 41583.101337433
scalar OsgEarthNet.uav[3] utilizationEnergyCharge 104118.39990234
scalar OsgEarthNet.uav[3] utilizationEnergyOverdrawMission 0
scalar OsgEarthNet.uav[3] utilizationEnergyOverdrawMaintenance 0
scalar OsgEarthNet.uav[3] utilizationCountMissions 23
scalar OsgEarthNet.uav[3] utilizationCountManeuversMission 452
scalar OsgEarthNet.uav[3] utilizationCountManeuversMaintenance 46
scalar OsgEarthNet.uav[3] utilizationCountChargeState 23
scalar OsgEarthNet.uav[3] utilizationCountOverdrawnAfterMission 0
scalar OsgEarthNet.uav[3] utilizationCountIdleState 24
scalar OsgEarthNet.uav[3] utilizationFail 0
scalar OsgEarthNet.uav[3] simulationTime 259200
scalar OsgEarthNet.uav[4] utilizationSecMission 30474.965934932
scalar OsgEarthNet.uav[4] utilizationSecMaintenance 16770.327366032
scalar OsgEarthNet.uav[4] utilizationSecCharge 177740
scalar OsgEarthNet.uav[4] utilizationSecIdle 34214.705699036
scalar OsgEarthNet.uav[4] utilizationEnergyMission 148413.1359787
scalar OsgEarthNet.uav[4] utilizationEnergyMaintenance 79153.467471802
scalar OsgEarthNet.uav[4] utilizationEnergyCharge 222913.59033203
scalar OsgEarthNet.uav[4] utilizationEnergyOverdrawMission 0
scalar OsgEarthNet.uav[4] utilizationEnergyOverdrawMaintenance 0
scalar OsgEarthNet.uav[4] utilizationCountMissions 54
scalar OsgEarthNet.uav[4] utilizationCountManeuversMission 863
scalar OsgEarthNet.uav[4] utilizationCountManeuversMaintenance 109
scalar OsgEarthNet.uav[4] utilizationCountChargeState 54
scalar OsgEarthNet.uav[4] utilizationCountOverdrawnAfterMission 0
scalar OsgEarthNet.uav[4] utilizationCountIdleState 54
scalar OsgEarthNet.uav[4] utilizationFail 0
scalar OsgEarthNet.uav[4] simulationTime 259200
scalar OsgEarthNet.uav[5] utilizationSecMission 34872.397064124
scalar OsgEarthNet.uav[5] utilizationSecMaintenance 15665.601935876
scalar OsgEarthNet.uav[5] utilizationSecCharge 183440
scalar OsgEarthNet.uav[5] utilizationSecIdle 25222
scalar OsgEarthNet.uav[5] utilizationEnergyMission 168631.10688782
scalar OsgEarthNet.uav[5] utilizationEnergyMaintenance 71491.754009763
scalar OsgEarthNet.uav[5] utilizationEnergyCharge 237586.90869141
scalar OsgEarthNet.uav[5] utilizationEnergyOverdrawMission 0
scalar OsgEarthNet.uav[5] utilizationEnergyOverdrawMaintenance 0
scalar OsgEarthNet.uav[5] utilizationCountMissions 53
scalar OsgEarthNet.uav[5] utilizationCountManeuversMission 1193
scalar OsgEarthNet.uav[5] utilizationCountManeuversMaintenance 106
scalar OsgEarthNet.uav[5] utilizationCountChargeState 52
scalar OsgEarthNet.uav[5] utilizationCountOverdrawnAfterMission 0
scalar OsgEarthNet.uav[5] utilizationCountIdleState 52
scalar OsgEarthNet.uav[5] utilizationFail 0
scalar OsgEarthNet.uav[5] simulationTime 259200
scalar OsgEarthNet.uav[6] utilizationSecMission 19548.752136124
scalar OsgEarthNet.uav[6] utilizationSecMaintenance 11642.344935316
scalar OsgEarthNet.uav[6] utilizationSecCharge 115970
scalar OsgEarthNet.uav[6] utilizationSecIdle 112038.90192856
scalar OsgEarthNet.uav[6] utilizationEnergyMission 96070.115753174
scalar OsgEarthNet.uav[6] utilizationEnergyMaintenance 54980.186992645
scalar OsgEarthNet.uav[6] utilizationEnergyCharge 149441.47460938
scalar OsgEarthNet.uav[6] utilizationEnergyOverdrawMission 0
scalar OsgEarthNet.uav[6] utilizationEnergyOverdrawMaintenance 0
scalar OsgEarthNet.uav[6] utilizationCountMissions 33
scalar OsgEarthNet.uav[6] utilizationCountManeuversMission 613
scalar OsgEarthNet.uav[6] utilizationCountManeuversMaintenance 66
scalar OsgEarthNet.uav[6] utilizationCountChargeState 33
scalar OsgEarthNet.uav[6] utilizationCountOverdrawnAfterMission 0
scalar OsgEarthNet.uav[6] utilizationCountIdleState 34
scalar OsgEarthNet.uav[6] utilizationFail 0
scalar OsgEarthNet.uav[6] simulationTime 259200
scalar OsgEarthNet.uav[7] utilizationSecMission 31050.269128083
scalar OsgEarthNet.uav[7] utilizationSecMaintenance 16997.706453459
scalar OsgEarthNet.uav[7] utilizationSecCharge 180703.66981558
scalar OsgEarthNet.uav[7] utilizationSecIdle 30448.353602879
scalar OsgEarthNet.uav[7] utilizationEnergyMission 149796.65849304
scalar OsgEarthNet.uav[7] utilizationEnergyMaintenance 80749.293182373
scalar OsgEarthNet.uav[7] utilizationEnergyCharge 228078.34545898
scalar OsgEarthNet.uav[7] utilizationEnergyOverdrawMission 0
scalar OsgEarthNet.uav[7] utilizationEnergyOverdrawMaintenance 0
scalar OsgEarthNet.uav[7] utilizationCountMissions 55
scalar OsgEarthNet.uav[7] utilizationCountManeuversMission 908
scalar OsgEarthNet.uav[7] utilizationCountManeuversMaintenance 110
scalar OsgEarthNet.uav[7] utilizationCountChargeState 55
scalar OsgEarthNet.uav[7] utilizationCountOverdrawnAfterMission 0
scalar OsgEarthNet.uav[7] utilizationCountIdleState 55
scalar OsgEarthNet.uav[7] utilizationFail 0
scalar OsgEarthNet.uav[7] simulationTime 259200
scalar OsgEarthNet.uav[8] utilizationSecMission 36407.088037578
scalar OsgEarthNet.uav[8] utilizationSecMaintenance 13358.507720791
scalar OsgEarthNet.uav[8] utilizationSecCharge 179262.40224163
scalar OsgEarthNet.uav[8] utilizationSecIdle 30172.001
scalar OsgEarthNet.uav[8] utilizationEnergyMission 174907.99988937
scalar OsgEarthNet.uav[8] utilizationEnergyMaintenance 61049.090808868
scalar OsgEarthNet.uav[8] utilizationEnergyCharge 233902.89501953
scalar OsgEarthNet.uav[8] utilizationEnergyOverdrawMission 0
scalar OsgEarthNet.uav[8] utilizationEnergyOverdrawMaintenance 0
scalar OsgEarthNet.uav[8] utilizationCountMissions 51
scalar OsgEarthNet.uav[8] utilizationCountManeuversMission 962
scalar OsgEarthNet.uav[8] utilizationCountManeuversMaintenance 102
scalar OsgEarthNet.uav[8] utilizationCountChargeState 51
scalar OsgEarthNet.uav[8] utilizationCountOverdrawnAfterMission 0
scalar OsgEarthNet.uav[8] utilizationCountIdleState 50
scalar OsgEarthNet.uav[8] utilizationFail 0
scalar OsgEarthNet.uav[8] simulationTime 259200
scalar OsgEarthNet.uav[9] utilizationSecMission 18757.845208794
scalar OsgEarthNet.uav[9] utilizationSecMaintenance 12460.640130256
scalar OsgEarthNet.uav[9] utilizationSecCharge 116670
scalar OsgEarthNet.uav[9] utilizationSecIdle 111311.51366095
scalar OsgEarthNet.uav[9] utilizationEnergyMission 91232.63135377
scalar OsgEarthNet.uav[9] utilizationEnergyMaintenance 60115.625461578
scalar OsgEarthNet.uav[9] utilizationEnergyCharge 150868.88916016
scalar OsgEarthNet.uav[9] utilizationEnergyOverdrawMission 0
scalar OsgEarthNet.uav[9] utilizationEnergyOverdrawMaintenance 0
scalar OsgEarthNet.uav[9] utilizationCountMissions 33
scalar OsgEarthNet.uav[9] utilizationCountManeuversMission 643
scalar OsgEarthNet.uav[9] utilizationCountManeuversMaintenance 67
scalar OsgEarthNet.uav[9] utilizationCountChargeState 33
scalar OsgEarthNet.uav[9] utilizationCountOverdrawnAfterMission 0
scalar OsgEarthNet.uav[9] utilizationCountIdleState 34
scalar OsgEarthNet.uav[9] utilizationFail 0
scalar OsgEarthNet.uav[9] simulationTime 259200
scalar OsgEarthNet.uav[10] utilizationSecMission 30560.853445271
scalar OsgEarthNet.uav[10] utilizationSecMaintenance 16701.819484341
scalar OsgEarthNet.uav[10] utilizationSecCharge 179344.56010505
scalar OsgEarthNet.uav[10] utilizationSecIdle 32592.765965339
scalar OsgEarthNet.uav[10] utilizationEnergyMission 147435.59564209
scalar OsgEarthNet.uav[10] utilizationEnergyMaintenance 78875.826824188
scalar OsgEarthNet.uav[10] utilizationEnergyCharge 224048.17089844
scalar OsgEarthNet.uav[10] utilizationEnergyOverdrawMission 0
scalar OsgEarthNet.uav[10] utilizationEnergyOverdrawMaintenance 0
scalar OsgEarthNet.uav[10] utilizationCountMissions 56
scalar OsgEarthNet.uav[10] utilizationCountManeuversMission 797
scalar OsgEarthNet.uav[10] utilizationCountManeuversMaintenance 112
scalar OsgEarthNet.uav[10] utilizationCountChargeState 56
scalar OsgEarthNet.uav[10] utilizationCountOverdrawnAfterMission 0
scalar OsgEarthNet.uav[10] utilizationCountIdleState 56
scalar OsgEarthNet.uav[10] utilizationFail 0
scalar OsgEarthNet.uav[10] simulationTime 259200
scalar OsgEarthNet.uav[11] utilizationSecMission 29303.896640015
scalar OsgEarthNet.uav[11] utilizationSecMaintenance 18056.08208584
scalar OsgEarthNet.uav[11] utilizationSecCharge 182670
scalar OsgEarthNet.uav[11] utilizationSecIdle 29170.020274145
scalar OsgEarthNet.uav[11] utilizationEnergyMission 140534.31103897
scalar OsgEarthNet.uav[11] utilizationEnergyMaintenance 86013.763560223
scalar OsgEarthNet.uav[11] utilizationEnergyCharge 228119.54296875
scalar OsgEarthNet.uav[11] utilizationEnergyOverdrawMission 0
scalar OsgEarthNet.uav[11] utilizationEnergyOverdrawMaintenance 0
scalar OsgEarthNet.uav[11] utilizationCountMissions 56
scalar OsgEarthNet.uav[11] utilizationCountManeuversMission 866
scalar OsgEarthNet.uav[11] utilizationCountManeuversMaintenance 113
scalar OsgEarthNet.uav[11] utilizationCountChargeState 56
scalar OsgEarthNet.uav[11] utilizationCountOverdrawnAfterMission 0
scalar OsgEarthNet.uav[11] utilizationCountIdleState 56
scalar OsgEarthNet.uav[11] utilizationFail 0
scalar OsgEarthNet.uav[11] simulationTime 259200
scalar OsgEarthNet.uav[12] utilizationSecMission 35122.132552467
scalar OsgEarthNet.uav[12] utilizationSecMaintenance 14035.388693874
scalar OsgEarthNet.uav[12] utilizationSecCharge 180290.47375366
scalar OsgEarthNet.uav[12] utilizationSecIdle 29752.004
scalar OsgEarthNet.uav[12] utilizationEnergyMission 170846.301548
scalar OsgEarthNet.uav[12] utilizationEnergyMaintenance 64342.807693481
scalar OsgEarthNet.uav[12] utilizationEnergyCharge 234249.16308594
scalar OsgEarthNet.uav[12] utilizationEnergyOverdrawMission 0
scalar OsgEarthNet.uav[12] utilizationEnergyOverdrawMaintenance 0
scalar OsgEarthNet.uav[12] utilizationCountMissions 51
scalar OsgEarthNet.uav[12] utilizationCountManeuversMission 1127
scalar OsgEarthNet.uav[12] utilizationCountManeuversMaintenance 102
scalar OsgEarthNet.uav[12] utilizationCountChargeState 51
scalar OsgEarthNet.uav[12] utilizationCountOverdrawnAfterMission 0
scalar OsgEarthNet.uav[12] utilizationCountIdleState 50
scalar OsgEarthNet.uav[12] utilizationFail 0
scalar OsgEarthNet.uav[12] simulationTime 259200
scalar OsgEarthNet.uav[13] utilizationSecMission 23938.380398097
scalar OsgEarthNet.uav[13] utilizationSecMaintenance 14401.332507989
scalar OsgEarthNet.uav[13] utilizationSecCharge 139018.28609391
scalar OsgEarthNet.uav[13] utilizationSecIdle 81842
scalar OsgEarthNet.uav[13] utilizationEnergyMission 115235.40284729
scalar OsgEarthNet.uav[13] utilizationEnergyMaintenance 68187.02545166
scalar OsgEarthNet.uav[13] utilizationEnergyCharge 179864.25927734
scalar OsgEarthNet.uav[13] utilizationEnergyOverdrawMission 0
scalar OsgEarthNet.uav[13] utilizationEnergyOverdrawMaintenance 0
scalar OsgEarthNet.uav[13] utilizationCountMissions 40
scalar OsgEarthNet.uav[13] utilizationCountManeuversMission 738
scalar OsgEarthNet.uav[13] utilizationCountManeuversMaintenance 79
scalar OsgEarthNet.uav[13] utilizationCountChargeState 40
scalar OsgEarthNet.uav[13] utilizationCountOverdrawnAfterMission 0
scalar OsgEarthNet.uav[13] utilizationCountIdleState 40
scalar OsgEarthNet.uav[13] utilizationFail 0
scalar OsgEarthNet.uav[13] simulationTime 259200
scalar OsgEarthNet.uav[14] utilizationSecMission 28779.336517551
scalar OsgEarthNet.uav[14] utilizationSecMaintenance 17878.996470856
scalar OsgEarthNet.uav[14] utilizationSecCharge 180670
scalar OsgEarthNet.uav[14] utilizationSecIdle 31871.666011592
scalar OsgEarthNet.uav[14] utilizationEnergyMission 139316.14248276
scalar OsgEarthNet.uav[14] utilizationEnergyMaintenance 85256.858348846
scalar OsgEarthNet.uav[14] utilizationEnergyCharge 224444.52563477
scalar OsgEarthNet.uav[14] utilizationEnergyOverdrawMission 0
scalar OsgEarthNet.uav[14] utilizationEnergyOverdrawMaintenance 0
scalar OsgEarthNet.uav[14] utilizationCountMissions 56
scalar OsgEarthNet.uav[14] utilizationCountManeuversMission 899
scalar OsgEarthNet.uav[14] utilizationCountManeuversMaintenance 112
scalar OsgEarthNet.uav[14] utilizationCountChargeState 56
scalar OsgEarthNet.uav[14] utilizationCountOverdrawnAfterMission 0
scalar OsgEarthNet.uav[14] utilizationCountIdleState 57
scalar OsgEarthNet.uav[14] utilizationFail 0
scalar OsgEarthNet.uav[14] simulationTime 259200
scalar OsgEarthNet.uav[15] utilizationSecMission 35162.081860579
scalar OsgEarthNet.uav[15] utilizationSecMaintenance 15115.216142147
scalar OsgEarthNet.uav[15] utilizationSecCharge 181910.69899727
scalar OsgEarthNet.uav[15] utilizationSecIdle 27012.002
scalar OsgEarthNet.uav[15] utilizationEnergyMission 172124.66220856
scalar OsgEarthNet.uav[15] utilizationEnergyMaintenance 69706.891353607
scalar OsgEarthNet.uav[15] utilizationEnergyCharge 236402.50976562
scalar OsgEarthNet.uav[15] utilizationEnergyOverdrawMission 0
scalar OsgEarthNet.uav[15] utilizationEnergyOverdrawMaintenance 0
scalar OsgEarthNet.uav[15] utilizationCountMissions 52
scalar OsgEarthNet.uav[15] utilizationCountManeuversMission 1211
scalar OsgEarthNet.uav[15] utilizationCountManeuversMaintenance 104
scalar OsgEarthNet.uav[15] utilizationCountChargeState 52
scalar OsgEarthNet.uav[15] utilizationCountOverdrawnAfterMission 0
scalar OsgEarthNet.uav[15] utilizationCountIdleState 51
scalar OsgEarthNet.uav[15] utilizationFail 0
scalar OsgEarthNet.uav[15] simulationTime 259200
scalar OsgEarthNet.uav[16] utilizationSecMission 28254.062828473
scalar OsgEarthNet.uav[16] utilizationSecMaintenance 14478.744737857
scalar OsgEarthNet.uav[16] utilizationSecCharge 158865.17943367
scalar OsgEarthNet.uav[16] utilizationSecIdle 57602.012
scalar OsgEarthNet.uav[16] utilizationEnergyMission 134579.02977371
scalar OsgEarthNet.uav[16] utilizationEnergyMaintenance 68387.202026367
scalar OsgEarthNet.uav[16] utilizationEnergyCharge 201495.54345703
scalar OsgEarthNet.uav[16] utilizationEnergyOverdrawMission 0
scalar OsgEarthNet.uav[16] utilizationEnergyOverdrawMaintenance 0
scalar OsgEarthNet.uav[16] utilizationCountMissions 48
scalar OsgEarthNet.uav[16] utilizationCountManeuversMission 790
scalar OsgEarthNet.uav[16] utilizationCountManeuversMaintenance 96
scalar OsgEarthNet.uav[16] utilizationCountChargeState 48
scalar OsgEarthNet.uav[16] utilizationCountOverdrawnAfterMission 0
scalar OsgEarthNet.uav[16] utilizationCountIdleState 48
scalar OsgEarthNet.uav[16] utilizationFail 0
scalar OsgEarthNet.uav[16] simulationTime 259200
scalar OsgEarthNet.uav[17] utilizationSecMission 30344.014714029
scalar OsgEarthNet.uav[17] utilizationSecMaintenance 17364.88562201
scalar OsgEarthNet.uav[17] utilizationSecCharge 178730.04086877
scalar OsgEarthNet.uav[17] utilizationSecIdle 32761.057795193
scalar OsgEarthNet.uav[17] utilizationEnergyMission 146275.380867
scalar OsgEarthNet.uav[17] utilizationEnergyMaintenance 82734.899658203
scalar OsgEarthNet.uav[17] utilizationEnergyCharge 224797.12011719
scalar OsgEarthNet.uav[17] utilizationEnergyOverdrawMission 0
scalar OsgEarthNet.uav[17] utilizationEnergyOverdrawMaintenance 0
scalar OsgEarthNet.uav[17] utilizationCountMissions 55
scalar OsgEarthNet.uav[17] utilizationCountManeuversMission 922
scalar OsgEarthNet.uav[17] utilizationCountManeuversMaintenance 110
scalar OsgEarthNet.uav[17] utilizationCountChargeState 55
scalar OsgEarthNet.uav[17] utilizationCountOverdrawnAfterMission 0
scalar OsgEarthNet.uav[17] utilizationCountIdleState 54
scalar OsgEarthNet.uav[17] utilizationFail 0
scalar OsgEarthNet.uav[17] simulationTime 259200
scalar OsgEarthNet.uav[18] utilizationSecMission 36151.311193933
scalar OsgEarthNet.uav[18] utilizationSecMaintenance 13572.396806787
scalar OsgEarthNet.uav[18] utilizationSecCharge 179804.28799928
scalar OsgEarthNet.uav[18] utilizationSecIdle 29672.003
scalar OsgEarthNet.uav[18] utilizationEnergyMission 174573.2646637
scalar OsgEarthNet.uav[18] utilizationEnergyMaintenance 62827.592350006
scalar OsgEarthNet.uav[18] utilizationEnergyCharge 233760.83294678
scalar OsgEarthNet.uav[18] utilizationEnergyOverdrawMission 0
scalar OsgEarthNet.uav[18] utilizationEnergyOverdrawMaintenance 0
scalar OsgEarthNet.uav[18] utilizationCountMissions 51
scalar OsgEarthNet.uav[18] utilizationCountManeuversMission 1060
scalar OsgEarthNet.uav[18] utilizationCountManeuversMaintenance 102
scalar OsgEarthNet.uav[18] utilizationCountChargeState 51
scalar OsgEarthNet.uav[18] utilizationCountOverdrawnAfterMission 0
scalar OsgEarthNet.uav[18] utilizationCountIdleState 51
scalar OsgEarthNet.uav[18] utilizationFail 0
scalar OsgEarthNet.uav[18] simulationTime 259200
scalar OsgEarthNet.uav[19] utilizationSecMission 20028.752136124
scalar OsgEarthNet.uav[19] utilizationSecMaintenance 12099.807982708
scalar OsgEarthNet.uav[19] utilizationSecCharge 118206.79445925
scalar OsgEarthNet.uav[19] utilizationSecIdle 108864.64442192
scalar OsgEarthNet.uav[19] utilizationEnergyMission 96457.030639648
scalar OsgEarthNet.uav[19] utilizationEnergyMaintenance 57446.143009186
scalar OsgEarthNet.uav[19] utilizationEnergyCharge 153487.77050781
scalar OsgEarthNet.uav[19] utilizationEnergyOverdrawMission 0
scalar OsgEarthNet.uav[19] utilizationEnergyOverdrawMaintenance 0
scalar OsgEarthNet.uav[19] utilizationCountMissions 34
scalar OsgEarthNet.uav[19] utilizationCountManeuversMission 637
scalar OsgEarthNet.uav[19] utilizationCountManeuversMaintenance 68
scalar OsgEarthNet.uav[19] utilizationCountChargeState 34
scalar OsgEarthNet.uav[19] utilizationCountOverdrawnAfterMission 0
scalar OsgEarthNet.uav[19] utilizationCountIdleState 34
scalar OsgEarthNet.uav[19] utilizationFail 0
scalar OsgEarthNet.uav[19] simulationTime 259200
scalar OsgEarthNet.uav[20] utilizationSecMission 15805.001220642
scalar OsgEarthNet.uav[20] utilizationSecMaintenance 11203.356484259
scalar OsgEarthNet.uav[20] utilizationSecCharge 98849.634295099
scalar OsgEarthNet.uav[20] utilizationSecIdle 133342.007
scalar OsgEarthNet.uav[20] utilizationEnergyMission 77563.298038483
scalar OsgEarthNet.uav[20] utilizationEnergyMaintenance 53170.721767425
scalar OsgEarthNet.uav[20] utilizationEnergyCharge 127409.04321289
scalar OsgEarthNet.uav[20] utilizationEnergyOverdrawMission 0
scalar OsgEarthNet.uav[20] utilizationEnergyOverdrawMaintenance 0
scalar OsgEarthNet.uav[20] utilizationCountMissions 29
scalar OsgEarthNet.uav[20] utilizationCountManeuversMission 582
scalar OsgEarthNet.uav[20] utilizationCountManeuversMaintenance 58
scalar OsgEarthNet.uav[20] utilizationCountChargeState 29
scalar OsgEarthNet.uav[20] utilizationCountOverdrawnAfterMission 0
scalar OsgEarthNet.uav[20] utilizationCountIdleState 29
scalar OsgEarthNet.uav[20] utilizationFail 0
scalar OsgEarthNet.uav[20] simulationTime 259200
scalar OsgEarthNet.uav[21] utilizationSecMission 32288.040313949
scalar OsgEarthNet.uav[21] utilizationSecMaintenance 15276.386740872
scalar OsgEarthNet.uav[21] utilizationSecCharge 177763.56394518
scalar OsgEarthNet.uav[21] utilizationSecIdle 33872.008
scalar OsgEarthNet.uav[21] utilizationEnergyMission 154396.89471436
scalar OsgEarthNet.uav[21] utilizationEnergyMaintenance 72418.921455383
scalar OsgEarthNet.uav[21] utilizationEnergyCharge 224860.63720703
scalar OsgEarthNet.uav[21] utilizationEnergyOverdrawMission 0
scalar OsgEarthNet.uav[21] utilizationEnergyOverdrawMaintenance 0
scalar OsgEarthNet.uav[21] utilizationCountMissions 54
scalar OsgEarthNet.uav[21] utilizationCountManeuversMission 827
scalar OsgEarthNet.uav[21] utilizationCountManeuversMaintenance 108
scalar OsgEarthNet.uav[21] utilizationCountChargeState 54
scalar OsgEarthNet.uav[21] utilizationCountOverdrawnAfterMission 0
scalar OsgEarthNet.uav[21] utilizationCountIdleState 54
scalar OsgEarthNet.uav[21] utilizationFail 0
scalar OsgEarthNet.uav[21] simulationTime 259200
scalar OsgEarthNet.uav[22] utilizationSecMission 35783.763280386
scalar OsgEarthNet.uav[22] utilizationSecMaintenance 13678.817551956
scalar OsgEarthNet.uav[22] utilizationSecCharge 180795.41316766
scalar OsgEarthNet.uav[22] utilizationSecIdle 28942.005
scalar OsgEarthNet.uav[22] utilizationEnergyMission 171865.03666306
scalar OsgEarthNet.uav[22] utilizationEnergyMaintenance 63407.27173233
scalar OsgEarthNet.uav[22] utilizationEnergyCharge 235911.51806641
scalar OsgEarthNet.uav[22] utilizationEnergyOverdrawMission 0
scalar OsgEarthNet.uav[22] utilizationEnergyOverdrawMaintenance 0
scalar OsgEarthNet.uav[22] utilizationCountMissions 51
scalar OsgEarthNet.uav[22] utilizationCountManeuversMission 1080
scalar OsgEarthNet.uav[22] utilizationCountManeuversMaintenance 102
scalar OsgEarthNet.uav[22] utilizationCountChargeState 51
scalar OsgEarthNet.uav[22] utilizationCountOverdrawnAfterMission 0
scalar OsgEarthNet.uav[22] utilizationCountIdleState 50
scalar OsgEarthNet.uav[22] utilizationFail 0
scalar OsgEarthNet.uav[22] simulationTime 259200
scalar OsgEarthNet.uav[23] utilizationSecMission 22791.034596287
scalar OsgEarthNet.uav[23] utilizationSecMaintenance 13762.84846892
scalar OsgEarthNet.uav[23] utilizationSecCharge 134640
scalar OsgEarthNet.uav[23] utilizationSecIdle 88006.115934793
scalar OsgEarthNet.uav[23] utilizationEnergyMission 108395.41101456
scalar OsgEarthNet.uav[23] utilizationEnergyMaintenance 65451.239601135
scalar OsgEarthNet.uav[23] utilizationEnergyCharge 173903.26025391
scalar OsgEarthNet.uav[23] utilizationEnergyOverdrawMission 0
scalar OsgEarthNet.uav[23] utilizationEnergyOverdrawMaintenance 0
scalar OsgEarthNet.uav[23] utilizationCountMissions 38
scalar OsgEarthNet.uav[23] utilizationCountManeuversMission 705
scalar OsgEarthNet.uav[23] utilizationCountManeuversMaintenance 76
scalar OsgEarthNet.uav[23] utilizationCountChargeState 38
scalar OsgEarthNet.uav[23] utilizationCountOverdrawnAfterMission 0
scalar OsgEarthNet.uav[23] utilizationCountIdleState 39
scalar OsgEarthNet.uav[23] utilizationFail 0
scalar OsgEarthNet.uav[23] simulationTime 259200
scalar OsgEarthNet.uav[24] utilizationSecMission 30164.189151999
scalar OsgEarthNet.uav[24] utilizationSecMaintenance 16667.100575935
scalar OsgEarthNet.uav[24] utilizationSecCharge 181296.70927207
scalar OsgEarthNet.uav[24] utilizationSecIdle 31072
scalar OsgEarthNet.uav[24] utilizationEnergyMission 143139.35348892
scalar OsgEarthNet.uav[24] utilizationEnergyMaintenance 79044.84015274
scalar OsgEarthNet.uav[24] utilizationEnergyCharge 222199.01586914
scalar OsgEarthNet.uav[24] utilizationEnergyOverdrawMission 0
scalar OsgEarthNet.uav[24] utilizationEnergyOverdrawMaintenance 0
scalar OsgEarthNet.uav[24] utilizationCountMissions 58
scalar OsgEarthNet.uav[24] utilizationCountManeuversMission 721
scalar OsgEarthNet.uav[24] utilizationCountManeuversMaintenance 116
scalar OsgEarthNet.uav[24] utilizationCountChargeState 58
scalar OsgEarthNet.uav[24] utilizationCountOverdrawnAfterMission 0
scalar OsgEarthNet.uav[24] utilizationCountIdleState 58
scalar OsgEarthNet.uav[24] utilizationFail 0
scalar OsgEarthNet.uav[24] simulationTime 259200
scalar OsgEarthNet.uav[25] utilizationSecMission 34259.91478772
scalar OsgEarthNet.uav[25] utilizationSecMaintenance 14510.610289119
scalar OsgEarthNet.uav[25] utilizationSecCharge 181890
scalar OsgEarthNet.uav[25] utilizationSecIdle 28539.473923161
scalar OsgEarthNet.uav[25] utilizationEnergyMission 166776.92526627
scalar OsgEarthNet.uav[25] utilizationEnergyMaintenance 66983.948654175
scalar OsgEarthNet.uav[25] utilizationEnergyCharge 235722.86914062
scalar OsgEarthNet.uav[25] utilizationEnergyOverdrawMission 0
scalar OsgEarthNet.uav[25] utilizationEnergyOverdrawMaintenance 0
scalar OsgEarthNet.uav[25] utilizationCountMissions 51
scalar OsgEarthNet.uav[25] utilizationCountManeuversMission 1112
scalar OsgEarthNet.uav[25] utilizationCountManeuversMaintenance 102
scalar OsgEarthNet.uav[25] utilizationCountChargeState 51
scalar OsgEarthNet.uav[25] utilizationCountOverdrawnAfterMission 0
scalar OsgEarthNet.uav[25] utilizationCountIdleState 52
scalar OsgEarthNet.uav[25] utilizationFail 0
scalar OsgEarthNet.uav[25] simulationTime 259200
scalar OsgEarthNet.uav[26] utilizationSecMission 22710.002441285
scalar OsgEarthNet.uav[26] utilizationSecMaintenance 14003.210227468
scalar OsgEarthNet.uav[26] utilizationSecCharge 137070
scalar OsgEarthNet.uav[26] utilizationSecIdle 85416.786331248
scalar OsgEarthNet.uav[26] utilizationEnergyMission 110693.38983154
scalar OsgEarthNet.uav[26] utilizationEnergyMaintenance 66290.979644775
scalar OsgEarthNet.uav[26] utilizationEnergyCharge 176495.54980469
scalar OsgEarthNet.uav[26] utilizationEnergyOverdrawMission 0
scalar OsgEarthNet.uav[26] utilizationEnergyOverdrawMaintenance 0
scalar OsgEarthNet.uav[26] utilizationCountMissions 39
scalar OsgEarthNet.uav[26] utilizationCountManeuversMission 719
scalar OsgEarthNet.uav[26] utilizationCountManeuversMaintenance 78
scalar OsgEarthNet.uav[26] utilizationCountChargeState 39
scalar OsgEarthNet.uav[26] utilizationCountOverdrawnAfterMission 0
scalar OsgEarthNet.uav[26] utilizationCountIdleState 40
scalar OsgEarthNet.uav[26] utilizationFail 0
scalar OsgEarthNet.uav[26] simulationTime 259200
scalar OsgEarthNet.uav[27] utilizationSecMission 31247.529611718
scalar OsgEarthNet.uav[27] utilizationSecMaintenance 16431.474497745
scalar OsgEarthNet.uav[27] utilizationSecCharge 181848.99389054
scalar OsgEarthNet.uav[27] utilizationSecIdle 29672.001
scalar OsgEarthNet.uav[27] utilizationEnergyMission 149521.23424149
scalar OsgEarthNet.uav[27] utilizationEnergyMaintenance 77615.072093964
scalar OsgEarthNet.uav[27] utilizationEnergyCharge 226067.33081055
scalar OsgEarthNet.uav[27] utilizationEnergyOverdrawMission 0
scalar OsgEarthNet.uav[27] utilizationEnergyOverdrawMaintenance 0
scalar OsgEarthNet.uav[27] utilizationCountMissions 57
scalar OsgEarthNet.uav[27] utilizationCountManeuversMission 762
scalar OsgEarthNet.uav[27] utilizationCountManeuversMaintenance 114
scalar OsgEarthNet.uav[27] utilizationCountChargeState 57
scalar OsgEarthNet.uav[27] utilizationCountOverdrawnAfterMission 0
scalar OsgEarthNet.uav[27] utilizationCountIdleState 55
scalar OsgEarthNet.uav[27] utilizationFail 0
scalar OsgEarthNet.uav[27] simulationTime 259200
scalar OsgEarthNet.uav[28] utilizationSecMission 33855.115155921
scalar OsgEarthNet.uav[28] utilizationSecMaintenance 15994.666487134
scalar OsgEarthNet.uav[28] utilizationSecCharge 185478.76439501
scalar OsgEarthNet.uav[28] utilizationSecIdle 23871.452961934
scalar OsgEarthNet.uav[28] utilizationEnergyMission 167369.92275238
scalar OsgEarthNet.uav[28] utilizationEnergyMaintenance 73490.497627258
scalar OsgEarthNet.uav[28] utilizationEnergyCharge 240737.19067383
scalar OsgEarthNet.uav[28] utilizationEnergyOverdrawMission 0
scalar OsgEarthNet.uav[28] utilizationEnergyOverdrawMaintenance 0
scalar OsgEarthNet.uav[28] utilizationCountMissions 53
scalar OsgEarthNet.uav[28] utilizationCountManeuversMission 1268
scalar OsgEarthNet.uav[28] utilizationCountManeuversMaintenance 106
scalar OsgEarthNet.uav[28] utilizationCountChargeState 53
scalar OsgEarthNet.uav[28] utilizationCountOverdrawnAfterMission 0
scalar OsgEarthNet.uav[28] utilizationCountIdleState 52
scalar OsgEarthNet.uav[28] utilizationFail 0
scalar OsgEarthNet.uav[28] simulationTime 259200
scalar OsgEarthNet.uav[29] utilizationSecMission 34447.059329162
scalar OsgEarthNet.uav[29] utilizationSecMaintenance 14175.162390484
scalar OsgEarthNet.uav[29] utilizationSecCharge 180500
scalar OsgEarthNet.uav[29] utilizationSecIdle 30077.777280354
scalar OsgEarthNet.uav[29] utilizationEnergyMission 171308.81275558
scalar OsgEarthNet.uav[29] utilizationEnergyMaintenance 64404.751403809
scalar OsgEarthNet.uav[29] utilizationEnergyCharge 233594.13378906
scalar OsgEarthNet.uav[29] utilizationEnergyOverdrawMission 0
scalar OsgEarthNet.uav[29] utilizationEnergyOverdrawMaintenance 0
scalar OsgEarthNet.uav[29] utilizationCountMissions 51
scalar OsgEarthNet.uav[29] utilizationCountManeuversMission 1229
scalar OsgEarthNet.uav[29] utilizationCountManeuversMaintenance 102
scalar OsgEarthNet.uav[29] utilizationCountChargeState 51
scalar OsgEarthNet.uav[29] utilizationCountOverdrawnAfterMission 0
scalar OsgEarthNet.uav[29] utilizationCountIdleState 51
scalar OsgEarthNet.uav[29] utilizationFail 0
scalar OsgEarthNet.uav[29] simulationTime 259200
scalar OsgEarthNet.uav[30] utilizationSecMission 20329.486363783
scalar OsgEarthNet.uav[30] utilizationSecMaintenance 11744.868270766
scalar OsgEarthNet.uav[30] utilizationSecCharge 120450
scalar OsgEarthNet.uav[30] utilizationSecIdle 106675.64436545
scalar OsgEarthNet.uav[30] utilizationEnergyMission 99333.295539856
scalar OsgEarthNet.uav[30] utilizationEnergyMaintenance 55935.828830719
scalar OsgEarthNet.uav[30] utilizationEnergyCharge 155631.68603516
scalar OsgEarthNet.uav[30] utilizationEnergyOverdrawMission 0
scalar OsgEarthNet.uav[30] utilizationEnergyOverdrawMaintenance 0
scalar OsgEarthNet.uav[30] utilizationCountMissions 34
scalar OsgEarthNet.uav[30] utilizationCountManeuversMission 609
scalar OsgEarthNet.uav[30] utilizationCountManeuversMaintenance 68
scalar OsgEarthNet.uav[30] utilizationCountChargeState 34
scalar OsgEarthNet.uav[30] utilizationCountOverdrawnAfterMission 0
scalar OsgEarthNet.uav[30] utilizationCountIdleState 35
scalar OsgEarthNet.uav[30] utilizationFail 0
scalar OsgEarthNet.uav[30] simulationTime 259200
scalar OsgEarthNet.uav[31] utilizationSecMission 30015.171219518
scalar OsgEarthNet.uav[31] utilizationSecMaintenance 18063.863794808
scalar OsgEarthNet.uav[31] utilizationSecCharge 181630
scalar OsgEarthNet.uav[31] utilizationSecIdle 29490.963985674
scalar OsgEarthNet.uav[31] utilizationEnergyMission 145519.17869186
scalar OsgEarthNet.uav[31] utilizationEnergyMaintenance 85558.302518578
scalar OsgEarthNet.uav[31] utilizationEnergyCharge 228018.08520508
scalar OsgEarthNet.uav[31] utilizationEnergyOverdrawMission 0
scalar OsgEarthNet.uav[31] utilizationEnergyOverdrawMaintenance 0
scalar OsgEarthNet.uav[31] utilizationCountMissions 56
scalar OsgEarthNet.uav[31] utilizationCountManeuversMission 972
scalar OsgEarthNet.uav[31] utilizationCountManeuversMaintenance 112
scalar OsgEarthNet.uav[31] utilizationCountChargeState 55
scalar OsgEarthNet.uav[31] utilizationCountOverdrawnAfterMission 0
scalar OsgEarthNet.uav[31] utilizationCountIdleState 56
scalar OsgEarthNet.uav[31] utilizationFail 0
scalar OsgEarthNet.uav[31] simulationTime 259200
scalar OsgEarthNet.uav[32] utilizationSecMission 35351.167193127
scalar OsgEarthNet.uav[32] utilizationSecMaintenance 14507.419977263
scalar OsgEarthNet.uav[32] utilizationSecCharge 181682.19221569
scalar OsgEarthNet.uav[32] utilizationSecIdle 27659.219613916
scalar OsgEarthNet.uav[32] utilizationEnergyMission 170573.96802139
scalar OsgEarthNet.uav[32] utilizationEnergyMaintenance 66942.624160767
scalar OsgEarthNet.uav[32] utilizationEnergyCharge 236701.49829102
scalar OsgEarthNet.uav[32] utilizationEnergyOverdrawMission 0
scalar OsgEarthNet.uav[32] utilizationEnergyOverdrawMaintenance 0
scalar OsgEarthNet.uav[32] utilizationCountMissions 52
scalar OsgEarthNet.uav[32] utilizationCountManeuversMission 1142
scalar OsgEarthNet.uav[32] utilizationCountManeuversMaintenance 104
scalar OsgEarthNet.uav[32] utilizationCountChargeState 52
scalar OsgEarthNet.uav[32] utilizationCountOverdrawnAfterMission 0
scalar OsgEarthNet.uav[32] utilizationCountIdleState 51
scalar OsgEarthNet.uav[32] utilizationFail 0
scalar OsgEarthNet.uav[32] simulationTime 259200
scalar OsgEarthNet.uav[33] utilizationSecMission 20289.377288704
scalar OsgEarthNet.uav[33] utilizationSecMaintenance 11932.929787964
scalar OsgEarthNet.uav[33] utilizationSecCharge 120040
scalar OsgEarthNet.uav[33] utilizationSecIdle 106937.69192333
scalar OsgEarthNet.uav[33] utilizationEnergyMission 98092.216709137
scalar OsgEarthNet.uav[33] utilizationEnergyMaintenance 56776.394962311
scalar OsgEarthNet.uav[33] utilizationEnergyCharge 154990.43603516
scalar OsgEarthNet.uav[33] utilizationEnergyOverdrawMission 0
scalar OsgEarthNet.uav[33] utilizationEnergyOverdrawMaintenance 0
scalar OsgEarthNet.uav[33] utilizationCountMissions 34
scalar OsgEarthNet.uav[33] utilizationCountManeuversMission 624
scalar OsgEarthNet.uav[33] utilizationCountManeuversMaintenance 68
scalar OsgEarthNet.uav[33] utilizationCountChargeState 34
scalar OsgEarthNet.uav[33] utilizationCountOverdrawnAfterMission 0
scalar OsgEarthNet.uav[33] utilizationCountIdleState 35
scalar OsgEarthNet.uav[33] utilizationFail 0
scalar OsgEarthNet.uav[33] simulationTime 259200
scalar OsgEarthNet.uav[34] utilizationSecMission 28841.857678746
scalar OsgEarthNet.uav[34] utilizationSecMaintenance 18485.924606183
scalar OsgEarthNet.uav[34] utilizationSecCharge 183690.21171507
scalar OsgEarthNet.uav[34] utilizationSecIdle 28182.005
scalar OsgEarthNet.uav[34] utilizationEnergyMission 139490.26761627
scalar OsgEarthNet.uav[34] utilizationEnergyMaintenance 87823.188518524
scalar OsgEarthNet.uav[34] utilizationEnergyCharge 228397.18457031
scalar OsgEarthNet.uav[34] utilizationEnergyOverdrawMission 0
scalar OsgEarthNet.uav[34] utilizationEnergyOverdrawMaintenance 0
scalar OsgEarthNet.uav[34] utilizationCountMissions 57
scalar OsgEarthNet.uav[34] utilizationCountManeuversMission 894
scalar OsgEarthNet.uav[34] utilizationCountManeuversMaintenance 114
scalar OsgEarthNet.uav[34] utilizationCountChargeState 57
scalar OsgEarthNet.uav[34] utilizationCountOverdrawnAfterMission 0
scalar OsgEarthNet.uav[34] utilizationCountIdleState 57
scalar OsgEarthNet.uav[34] utilizationFail 0
scalar OsgEarthNet.uav[34] simulationTime 259200
scalar OsgEarthNet.uav[35] utilizationSecMission 35495.742198705
scalar OsgEarthNet.uav[35] utilizationSecMaintenance 14395.377460969
scalar OsgEarthNet.uav[35] utilizationSecCharge 181096.87634033
scalar OsgEarthNet.uav[35] utilizationSecIdle 28212.003
scalar OsgEarthNet.uav[35] utilizationEnergyMission 172452.16572571
scalar OsgEarthNet.uav[35] utilizationEnergyMaintenance 66694.797439575
scalar OsgEarthNet.uav[35] utilizationEnergyCharge 234749.50158691
scalar OsgEarthNet.uav[35] utilizationEnergyOverdrawMission 0
scalar OsgEarthNet.uav[35] utilizationEnergyOverdrawMaintenance 0
scalar OsgEarthNet.uav[35] utilizationCountMissions 52
scalar OsgEarthNet.uav[35] utilizationCountManeuversMission 1200
scalar OsgEarthNet.uav[35] utilizationCountManeuversMaintenance 104
scalar OsgEarthNet.uav[35] utilizationCountChargeState 52
scalar OsgEarthNet.uav[35] utilizationCountOverdrawnAfterMission 0
scalar OsgEarthNet.uav[35] utilizationCountIdleState 51
scalar OsgEarthNet.uav[35] utilizationFail 0
scalar OsgEarthNet.uav[35] simulationTime 259200
scalar OsgEarthNet.uav[36] utilizationSecMission 20930.002441285
scalar OsgEarthNet.uav[36] utilizationSecMaintenance 12203.451999527
scalar OsgEarthNet.uav[36] utilizationSecCharge 120954.53155919
scalar OsgEarthNet.uav[36] utilizationSecIdle 105112.013
scalar OsgEarthNet.uav[36] utilizationEnergyMission 101451.18247223
scalar OsgEarthNet.uav[36] utilizationEnergyMaintenance 57547.01971817
scalar OsgEarthNet.uav[36] utilizationEnergyCharge 156510.74853516
scalar OsgEarthNet.uav[36] utilizationEnergyOverdrawMission 0
scalar OsgEarthNet.uav[36] utilizationEnergyOverdrawMaintenance 0
scalar OsgEarthNet.uav[36] utilizationCountMissions 35
scalar OsgEarthNet.uav[36] utilizationCountManeuversMission 630
scalar OsgEarthNet.uav[36] utilizationCountManeuversMaintenance 70
scalar OsgEarthNet.uav[36] utilizationCountChargeState 35
scalar OsgEarthNet.uav[36] utilizationCountOverdrawnAfterMission 0
scalar OsgEarthNet.uav[36] utilizationCountIdleState 35
scalar OsgEarthNet.uav[36] utilizationFail 0
scalar OsgEarthNet.uav[36] simulationTime 259200
scalar OsgEarthNet.uav[37] utilizationSecMission 30680.228292691
scalar OsgEarthNet.uav[37] utilizationSecMaintenance 16722.244978812
scalar OsgEarthNet.uav[37] utilizationSecCharge 178915.50857342
scalar OsgEarthNet.uav[37] utilizationSecIdle 32882.017155075
scalar OsgEarthNet.uav[37] utilizationEnergyMission 145689.83639145
scalar OsgEarthNet.uav[37] utilizationEnergyMaintenance 78913.137218475
scalar OsgEarthNet.uav[37] utilizationEnergyCharge 222191.62011719
scalar OsgEarthNet.uav[37] utilizationEnergyOverdrawMission 0
scalar OsgEarthNet.uav[37] utilizationEnergyOverdrawMaintenance 0
scalar OsgEarthNet.uav[37] utilizationCountMissions 56
scalar OsgEarthNet.uav[37] utilizationCountManeuversMission 829
scalar OsgEarthNet.uav[37] utilizationCountManeuversMaintenance 112
scalar OsgEarthNet.uav[37] utilizationCountChargeState 56
scalar OsgEarthNet.uav[37] utilizationCountOverdrawnAfterMission 0
scalar OsgEarthNet.uav[37] utilizationCountIdleState 56
scalar OsgEarthNet.uav[37] utilizationFail 0
scalar OsgEarthNet.uav[37] simulationTime 259200
scalar OsgEarthNet.uav[38] utilizationSecMission 34671.180232038
scalar OsgEarthNet.uav[38] utilizationSecMaintenance 14693.705925805
scalar OsgEarthNet.uav[38] utilizationSecCharge 181310
scalar OsgEarthNet.uav[38] utilizationSecIdle 28525.112842157
scalar OsgEarthNet.uav[38] utilizationEnergyMission 167916.1008606
scalar OsgEarthNet.uav[38] utilizationEnergyMaintenance 67629.675533295
scalar OsgEarthNet.uav[38] utilizationEnergyCharge 234555.26708984
scalar OsgEarthNet.uav[38] utilizationEnergyOverdrawMission 0
scalar OsgEarthNet.uav[38] utilizationEnergyOverdrawMaintenance 0
scalar OsgEarthNet.uav[38] utilizationCountMissions 51
scalar OsgEarthNet.uav[38] utilizationCountManeuversMission 1149
scalar OsgEarthNet.uav[38] utilizationCountManeuversMaintenance 102
scalar OsgEarthNet.uav[38] utilizationCountChargeState 51
scalar OsgEarthNet.uav[38] utilizationCountOverdrawnAfterMission 0
scalar OsgEarthNet.uav[38] utilizationCountIdleState 52
scalar OsgEarthNet.uav[38] utilizationFail 0
scalar OsgEarthNet.uav[38] simulationTime 259200
scalar OsgEarthNet.uav[39] utilizationSecMission 19948.752136124
scalar OsgEarthNet.uav[39] utilizationSecMaintenance 12459.277270584
scalar OsgEarthNet.uav[39] utilizationSecCharge 119685.44671479
scalar OsgEarthNet.uav[39] utilizationSecIdle 107106.52287851
scalar OsgEarthNet.uav[39] utilizationEnergyMission 97081.383010864
scalar OsgEarthNet.uav[39] utilizationEnergyMaintenance 59121.658859253
scalar OsgEarthNet.uav[39] utilizationEnergyCharge 155000.58300781
scalar OsgEarthNet.uav[39] utilizationEnergyOverdrawMission 0
scalar OsgEarthNet.uav[39] utilizationEnergyOverdrawMaintenance 0
scalar OsgEarthNet.uav[39] utilizationCountMissions 34
scalar OsgEarthNet.uav[39] utilizationCountManeuversMission 633
scalar OsgEarthNet.uav[39] utilizationCountManeuversMaintenance 68
scalar OsgEarthNet.uav[39] utilizationCountChargeState 34
scalar OsgEarthNet.uav[39] utilizationCountOverdrawnAfterMission 0
scalar OsgEarthNet.uav[39] utilizationCountIdleState 34
scalar OsgEarthNet.uav[39] utilizationFail 0
scalar OsgEarthNet.uav[39] simulationTime 259200
scalar OsgEarthNet.uav[40] utilizationSecMission 21148.126983544
scalar OsgEarthNet.uav[40] utilizationSecMaintenance 13773.684681397
scalar OsgEarthNet.uav[40] utilizationSecCharge 128286.17133506
scalar OsgEarthNet.uav[40] utilizationSecIdle 95992.016
scalar OsgEarthNet.uav[40] utilizationEnergyMission 103369.83454132
scalar OsgEarthNet.uav[40] utilizationEnergyMaintenance 64935.874324798
scalar OsgEarthNet.uav[40] utilizationEnergyCharge 166121.15527344
scalar OsgEarthNet.uav[40] utilizationEnergyOverdrawMission 0
scalar OsgEarthNet.uav[40] utilizationEnergyOverdrawMaintenance 0
scalar OsgEarthNet.uav[40] utilizationCountMissions 37
scalar OsgEarthNet.uav[40] utilizationCountManeuversMission 719
scalar OsgEarthNet.uav[40] utilizationCountManeuversMaintenance 74
scalar OsgEarthNet.uav[40] utilizationCountChargeState 37
scalar OsgEarthNet.uav[40] utilizationCountOverdrawnAfterMission 0
scalar OsgEarthNet.uav[40] utilizationCountIdleState 37
scalar OsgEarthNet.uav[40] utilizationFail 0
scalar OsgEarthNet.uav[40] simulationTime 259200
scalar OsgEarthNet.uav[41] utilizationSecMission 28937.169292236
scalar OsgEarthNet.uav[41] utilizationSecMaintenance 18640.828201042
scalar OsgEarthNet.uav[41] utilizationSecCharge 182160
scalar OsgEarthNet.uav[41] utilizationSecIdle 29462.001506722
scalar OsgEarthNet.uav[41] utilizationEnergyMission 142936.65927795
scalar OsgEarthNet.uav[41] utilizationEnergyMaintenance 88115.503704071
scalar OsgEarthNet.uav[41] utilizationEnergyCharge 227418.74804688
scalar OsgEarthNet.uav[41] utilizationEnergyOverdrawMission 0
scalar OsgEarthNet.uav[41] utilizationEnergyOverdrawMaintenance 0
scalar OsgEarthNet.uav[41] utilizationCountMissions 56
scalar OsgEarthNet.uav[41] utilizationCountManeuversMission 998
scalar OsgEarthNet.uav[41] utilizationCountManeuversMaintenance 113
scalar OsgEarthNet.uav[41] utilizationCountChargeState 56
scalar OsgEarthNet.uav[41] utilizationCountOverdrawnAfterMission 0
scalar OsgEarthNet.uav[41] utilizationCountIdleState 56
scalar OsgEarthNet.uav[41] utilizationFail 0
scalar OsgEarthNet.uav[41] simulationTime 259200
scalar OsgEarthNet.uav[42] utilizationSecMission 36285.142171165
scalar OsgEarthNet.uav[42] utilizationSecMaintenance 12804.481052323
scalar OsgEarthNet.uav[42] utilizationSecCharge 177560.53896247
scalar OsgEarthNet.uav[42] utilizationSecIdle 32549.83681404
scalar OsgEarthNet.uav[42] utilizationEnergyMission 170656.67235565
scalar OsgEarthNet.uav[42] utilizationEnergyMaintenance 59708.624351501
scalar OsgEarthNet.uav[42] utilizationEnergyCharge 230909.61181641
scalar OsgEarthNet.uav[42] utilizationEnergyOverdrawMission 0
scalar OsgEarthNet.uav[42] utilizationEnergyOverdrawMaintenance 0
scalar OsgEarthNet.uav[42] utilizationCountMissions 50
scalar OsgEarthNet.uav[42] utilizationCountManeuversMission 914
scalar OsgEarthNet.uav[42] utilizationCountManeuversMaintenance 100
scalar OsgEarthNet.uav[42] utilizationCountChargeState 50
scalar OsgEarthNet.uav[42] utilizationCountOverdrawnAfterMission 0
scalar OsgEarthNet.uav[42] utilizationCountIdleState 49
scalar OsgEarthNet.uav[42] utilizationFail 0
scalar OsgEarthNet.uav[42] simulationTime 259200
scalar OsgEarthNet.uav[43] utilizationSecMission 20638.385022294
scalar OsgEarthNet.uav[43] utilizationSecMaintenance 13467.895598727
scalar OsgEarthNet.uav[43] utilizationSecCharge 126011.70937898
scalar OsgEarthNet.uav[43] utilizationSecIdle 99082.009
scalar OsgEarthNet.uav[43] utilizationEnergyMission 100575.8501358
scalar OsgEarthNet.uav[43] utilizationEnergyMaintenance 63750.266891479
scalar OsgEarthNet.uav[43] utilizationEnergyCharge 163480.09423828
scalar OsgEarthNet.uav[43] utilizationEnergyOverdrawMission 0
scalar OsgEarthNet.uav[43] utilizationEnergyOverdrawMaintenance 0
scalar OsgEarthNet.uav[43] utilizationCountMissions 36
scalar OsgEarthNet.uav[43] utilizationCountManeuversMission 689
scalar OsgEarthNet.uav[43] utilizationCountManeuversMaintenance 72
scalar OsgEarthNet.uav[43] utilizationCountChargeState 36
scalar OsgEarthNet.uav[43] utilizationCountOverdrawnAfterMission 0
scalar OsgEarthNet.uav[43] utilizationCountIdleState 36
scalar OsgEarthNet.uav[43] utilizationFail 0
scalar OsgEarthNet.uav[43] simulationTime 259200
scalar OsgEarthNet.uav[44] utilizationSecMission 31024.581780215
scalar OsgEarthNet.uav[44] utilizationSecMaintenance 16538.240682467
scalar OsgEarthNet.uav[44] utilizationSecCharge 181825.17253732
scalar OsgEarthNet.uav[44] utilizationSecIdle 29812.004
scalar OsgEarthNet.uav[44] utilizationEnergyMission 146864.89020538
scalar OsgEarthNet.uav[44] utilizationEnergyMaintenance 78577.703868866
scalar OsgEarthNet.uav[44] utilizationEnergyCharge 226072.1081543
scalar OsgEarthNet.uav[44] utilizationEnergyOverdrawMission 0
scalar OsgEarthNet.uav[44] utilizationEnergyOverdrawMaintenance 0
scalar OsgEarthNet.uav[44] utilizationCountMissions 57
scalar OsgEarthNet.uav[44] utilizationCountManeuversMission 773
scalar OsgEarthNet.uav[44] utilizationCountManeuversMaintenance 114
scalar OsgEarthNet.uav[44] utilizationCountChargeState 57
scalar OsgEarthNet.uav[44] utilizationCountOverdrawnAfterMission 0
scalar OsgEarthNet.uav[44] utilizationCountIdleState 57
scalar OsgEarthNet.uav[44] utilizationFail 0
scalar OsgEarthNet.uav[44] simulationTime 259200
scalar OsgEarthNet.uav[45] utilizationSecMission 35479.141197678
scalar OsgEarthNet.uav[45] utilizationSecMaintenance 14264.507581501
scalar OsgEarthNet.uav[45] utilizationSecCharge 180040
scalar OsgEarthNet.uav[45] utilizationSecIdle 29416.350220821
scalar OsgEarthNet.uav[45] utilizationEnergyMission 172176.6539198
scalar OsgEarthNet.uav[45] utilizationEnergyMaintenance 65043.525119782
scalar OsgEarthNet.uav[45] utilizationEnergyCharge 232696.3046875
scalar OsgEarthNet.uav[45] utilizationEnergyOverdrawMission 0
scalar OsgEarthNet.uav[45] utilizationEnergyOverdrawMaintenance 0
scalar OsgEarthNet.uav[45] utilizationCountMissions 51
scalar OsgEarthNet.uav[45] utilizationCountManeuversMission 1113
scalar OsgEarthNet.uav[45] utilizationCountManeuversMaintenance 103
scalar OsgEarthNet.uav[45] utilizationCountChargeState 51
scalar OsgEarthNet.uav[45] utilizationCountOverdrawnAfterMission 0
scalar OsgEarthNet.uav[45] utilizationCountIdleState 51
scalar OsgEarthNet.uav[45] utilizationFail 0
scalar OsgEarthNet.uav[45] simulationTime 259200
scalar OsgEarthNet.uav[46] utilizationSecMission 22280.369555114
scalar OsgEarthNet.uav[46] utilizationSecMaintenance 12877.161936271
scalar OsgEarthNet.uav[46] utilizationSecCharge 128490.46350862
scalar OsgEarthNet.uav[46] utilizationSecIdle 95552.004
scalar OsgEarthNet.uav[46] utilizationEnergyMission 108041.84461212
scalar OsgEarthNet.uav[46] utilizationEnergyMaintenance 61016.522792816
scalar OsgEarthNet.uav[46] utilizationEnergyCharge 166622.96264648
scalar OsgEarthNet.uav[46] utilizationEnergyOverdrawMission 0
scalar OsgEarthNet.uav[46] utilizationEnergyOverdrawMaintenance 0
scalar OsgEarthNet.uav[46] utilizationCountMissions 37
scalar OsgEarthNet.uav[46] utilizationCountManeuversMission 676
scalar OsgEarthNet.uav[46] utilizationCountManeuversMaintenance 74
scalar OsgEarthNet.uav[46] utilizationCountChargeState 37
scalar OsgEarthNet.uav[46] utilizationCountOverdrawnAfterMission 0
scalar OsgEarthNet.uav[46] utilizationCountIdleState 37
scalar OsgEarthNet.uav[46] utilizationFail 0
scalar OsgEarthNet.uav[46] simulationTime 259200
scalar OsgEarthNet.uav[47] utilizationSecMission 30083.520958797
scalar OsgEarthNet.uav[47] utilizationSecMaintenance 16449.068149853
scalar OsgEarthNet.uav[47] utilizationSecCharge 180040
scalar OsgEarthNet.uav[47] utilizationSecIdle 32627.40989135
scalar OsgEarthNet.uav[47] utilizationEnergyMission 144126.78859711
scalar OsgEarthNet.uav[47] utilizationEnergyMaintenance 78316.998822635
scalar OsgEarthNet.uav[47] utilizationEnergyCharge 221721.78027344
scalar OsgEarthNet.uav[47] utilizationEnergyOverdrawMission 0
scalar OsgEarthNet.uav[47] utilizationEnergyOverdrawMaintenance 0
scalar OsgEarthNet.uav[47] utilizationCountMissions 57
scalar OsgEarthNet.uav[47] utilizationCountManeuversMission 679
scalar OsgEarthNet.uav[47] utilizationCountManeuversMaintenance 115
scalar OsgEarthNet.uav[47] utilizationCountChargeState 57
scalar OsgEarthNet.uav[47] utilizationCountOverdrawnAfterMission 0
scalar OsgEarthNet.uav[47] utilizationCountIdleState 57
scalar OsgEarthNet.uav[47] utilizationFail 0
scalar OsgEarthNet.uav[47] simulationTime 259200
scalar OsgEarthNet.uav[48] utilizationSecMission 35280.111663444
scalar OsgEarthNet.uav[48] utilizationSecMaintenance 14688.69161118
scalar OsgEarthNet.uav[48] utilizationSecCharge 184499.19572538
scalar OsgEarthNet.uav[48] utilizationSecIdle 24732
scalar OsgEarthNet.uav[48] utilizationEnergyMission 172090.9909853
scalar OsgEarthNet.uav[48] utilizationEnergyMaintenance 68533.3984375
scalar OsgEarthNet.uav[48] utilizationEnergyCharge 240266.61132812
scalar OsgEarthNet.uav[48] utilizationEnergyOverdrawMission 0
scalar OsgEarthNet.uav[48] utilizationEnergyOverdrawMaintenance 0
scalar OsgEarthNet.uav[48] utilizationCountMissions 52
scalar OsgEarthNet.uav[48] utilizationCountManeuversMission 1195
scalar OsgEarthNet.uav[48] utilizationCountManeuversMaintenance 103
scalar OsgEarthNet.uav[48] utilizationCountChargeState 52
scalar OsgEarthNet.uav[48] utilizationCountOverdrawnAfterMission 0
scalar OsgEarthNet.uav[48] utilizationCountIdleState 51
scalar OsgEarthNet.uav[48] utilizationFail 0
scalar OsgEarthNet.uav[48] simulationTime 259200
scalar OsgEarthNet.uav[49] utilizationSecMission 18146.251525803
scalar OsgEarthNet.uav[49] utilizationSecMaintenance 12581.9596802
scalar OsgEarthNet.uav[49] utilizationSecCharge 114389.772794
scalar OsgEarthNet.uav[49] utilizationSecIdle 114082.015
scalar OsgEarthNet.uav[49] utilizationEnergyMission 88979.429782867
scalar OsgEarthNet.uav[49] utilizationEnergyMaintenance 59239.882987976
scalar OsgEarthNet.uav[49] utilizationEnergyCharge 148171.51220703
scalar OsgEarthNet.uav[49] utilizationEnergyOverdrawMission 0
scalar OsgEarthNet.uav[49] utilizationEnergyOverdrawMaintenance 0
scalar OsgEarthNet.uav[49] utilizationCountMissions 33
scalar OsgEarthNet.uav[49] utilizationCountManeuversMission 647
scalar OsgEarthNet.uav[49] utilizationCountManeuversMaintenance 66
scalar OsgEarthNet.uav[49] utilizationCountChargeState 33
scalar OsgEarthNet.uav[49] utilizationCountOverdrawnAfterMission 0
scalar OsgEarthNet.uav[49] utilizationCountIdleState 33
scalar OsgEarthNet.uav[49] utilizationFail 0
scalar OsgEarthNet.uav[49] simulationTime 259200
scalar OsgEarthNet.uav[50] utilizationSecMission 21010.736668944
scalar OsgEarthNet.uav[50] utilizationSecMaintenance 11663.182526642
scalar OsgEarthNet.uav[50] utilizationSecCharge 120220
scalar OsgEarthNet.uav[50] utilizationSecIdle 106306.07980441
scalar OsgEarthNet.uav[50] utilizationEnergyMission 100219.07263184
scalar OsgEarthNet.uav[50] utilizationEnergyMaintenance 55308.360954285
scalar OsgEarthNet.uav[50] utilizationEnergyCharge 155284.66308594
scalar OsgEarthNet.uav[50] utilizationEnergyOverdrawMission 0
scalar OsgEarthNet.uav[50] utilizationEnergyOverdrawMaintenance 0
scalar OsgEarthNet.uav[50] utilizationCountMissions 34
scalar OsgEarthNet.uav[50] utilizationCountManeuversMission 591
scalar OsgEarthNet.uav[50] utilizationCountManeuversMaintenance 68
scalar OsgEarthNet.uav[50] utilizationCountChargeState 34
scalar OsgEarthNet.uav[50] utilizationCountOverdrawnAfterMission 0
scalar OsgEarthNet.uav[50] utilizationCountIdleState 35
scalar OsgEarthNet.uav[50] utilizationFail 0
scalar OsgEarthNet.uav[50] simulationTime 259200
scalar OsgEarthNet.uav[51] utilizationSecMission 30905.661047082
scalar OsgEarthNet.uav[51] utilizationSecMaintenance 17775.006576273
scalar OsgEarthNet.uav[51] utilizationSecCharge 184067.32837664
scalar OsgEarthNet.uav[51] utilizationSecIdle 26452.003
scalar OsgEarthNet.uav[51] utilizationEnergyMission 145828.25395584
scalar OsgEarthNet.uav[51] utilizationEnergyMaintenance 84234.715984344
scalar OsgEarthNet.uav[51] utilizationEnergyCharge 230665.18603516
scalar OsgEarthNet.uav[51] utilizationEnergyOverdrawMission 0
scalar OsgEarthNet.uav[51] utilizationEnergyOverdrawMaintenance 0
scalar OsgEarthNet.uav[51] utilizationCountMissions 57
scalar OsgEarthNet.uav[51] utilizationCountManeuversMission 890
scalar OsgEarthNet.uav[51] utilizationCountManeuversMaintenance 114
scalar OsgEarthNet.uav[51] utilizationCountChargeState 57
scalar OsgEarthNet.uav[51] utilizationCountOverdrawnAfterMission 0
scalar OsgEarthNet.uav[51] utilizationCountIdleState 57
scalar OsgEarthNet.uav[51] utilizationFail 0
scalar OsgEarthNet.uav[51] simulationTime 259200
scalar OsgEarthNet.uav[52] utilizationSecMission 35902.493413059
scalar OsgEarthNet.uav[52] utilizationSecMaintenance 13660.481879599
scalar OsgEarthNet.uav[52] utilizationSecCharge 181287.39262668
scalar OsgEarthNet.uav[52] utilizationSecIdle 28349.631080665
scalar OsgEarthNet.uav[52] utilizationEnergyMission 174721.38001251
scalar OsgEarthNet.uav[52] utilizationEnergyMaintenance 63904.979343414
scalar OsgEarthNet.uav[52] utilizationEnergyCharge 236263.9453125
scalar OsgEarthNet.uav[52] utilizationEnergyOverdrawMission 0
scalar OsgEarthNet.uav[52] utilizationEnergyOverdrawMaintenance 0
scalar OsgEarthNet.uav[52] utilizationCountMissions 51
scalar OsgEarthNet.uav[52] utilizationCountManeuversMission 1064
scalar OsgEarthNet.uav[52] utilizationCountManeuversMaintenance 102
scalar OsgEarthNet.uav[52] utilizationCountChargeState 51
scalar OsgEarthNet.uav[52] utilizationCountOverdrawnAfterMission 0
scalar OsgEarthNet.uav[52] utilizationCountIdleState 50
scalar OsgEarthNet.uav[52] utilizationFail 0
scalar OsgEarthNet.uav[52] simulationTime 259200
scalar OsgEarthNet.uav[53] utilizationSecMission 27694.601015742
scalar OsgEarthNet.uav[53] utilizationSecMaintenance 18086.258243042
scalar OsgEarthNet.uav[53] utilizationSecCharge 178060
scalar OsgEarthNet.uav[53] utilizationSecIdle 35359.139741216
scalar OsgEarthNet.uav[53] utilizationEnergyMission 133668.20654678
scalar OsgEarthNet.uav[53] utilizationEnergyMaintenance 86828.224323273
scalar OsgEarthNet.uav[53] utilizationEnergyCharge 221522.72192383
scalar OsgEarthNet.uav[53] utilizationEnergyOverdrawMission 0
scalar OsgEarthNet.uav[53] utilizationEnergyOverdrawMaintenance 0
scalar OsgEarthNet.uav[53] utilizationCountMissions 55
scalar OsgEarthNet.uav[53] utilizationCountManeuversMission 865
scalar OsgEarthNet.uav[53] utilizationCountManeuversMaintenance 110
scalar OsgEarthNet.uav[53] utilizationCountChargeState 55
scalar OsgEarthNet.uav[53] utilizationCountOverdrawnAfterMission 0
scalar OsgEarthNet.uav[53] utilizationCountIdleState 56
scalar OsgEarthNet.uav[53] utilizationFail 0
scalar OsgEarthNet.uav[53] simulationTime 259200
scalar OsgEarthNet.uav[54] utilizationSecMission 32027.872301741
scalar OsgEarthNet.uav[54] utilizationSecMaintenance 16201.201005436
scalar OsgEarthNet.uav[54] utilizationSecCharge 181848.92569282
scalar OsgEarthNet.uav[54] utilizationSecIdle 29122
scalar OsgEarthNet.uav[54] utilizationEnergyMission 150998.53442764
scalar OsgEarthNet.uav[54] utilizationEnergyMaintenance 77976.752696991
scalar OsgEarthNet.uav[54] utilizationEnergyCharge 226580.14135742
scalar OsgEarthNet.uav[54] utilizationEnergyOverdrawMission 0
scalar OsgEarthNet.uav[54] utilizationEnergyOverdrawMaintenance 0
scalar OsgEarthNet.uav[54] utilizationCountMissions 57
scalar OsgEarthNet.uav[54] utilizationCountManeuversMission 793
scalar OsgEarthNet.uav[54] utilizationCountManeuversMaintenance 113
scalar OsgEarthNet.uav[54] utilizationCountChargeState 57
scalar OsgEarthNet.uav[54] utilizationCountOverdrawnAfterMission 0
scalar OsgEarthNet.uav[54] utilizationCountIdleState 56
scalar OsgEarthNet.uav[54] utilizationFail 0
scalar OsgEarthNet.uav[54] simulationTime 259200
scalar OsgEarthNet.uav[55] utilizationSecMission 35362.856080533
scalar OsgEarthNet.uav[55] utilizationSecMaintenance 14806.526149812
scalar OsgEarthNet.uav[55] utilizationSecCharge 183428.61676965
scalar OsgEarthNet.uav[55] utilizationSecIdle 25602
scalar OsgEarthNet.uav[55] utilizationEnergyMission 168856.89825821
scalar OsgEarthNet.uav[55] utilizationEnergyMaintenance 68614.227600098
scalar OsgEarthNet.uav[55] utilizationEnergyCharge 238879.171875
scalar OsgEarthNet.uav[55] utilizationEnergyOverdrawMission 0
scalar OsgEarthNet.uav[55] utilizationEnergyOverdrawMaintenance 0
scalar OsgEarthNet.uav[55] utilizationCountMissions 52
scalar OsgEarthNet.uav[55] utilizationCountManeuversMission 1061
scalar OsgEarthNet.uav[55] utilizationCountManeuversMaintenance 104
scalar OsgEarthNet.uav[55] utilizationCountChargeState 52
scalar OsgEarthNet.uav[55] utilizationCountOverdrawnAfterMission 0
scalar OsgEarthNet.uav[55] utilizationCountIdleState 51
scalar OsgEarthNet.uav[55] utilizationFail 0
scalar OsgEarthNet.uav[55] simulationTime 259200
scalar OsgEarthNet.uav[56] utilizationSecMission 36312.137886393
scalar OsgEarthNet.uav[56] utilizationSecMaintenance 14062.207609841
scalar OsgEarthNet.uav[56] utilizationSecCharge 182913.65350377
scalar OsgEarthNet.uav[56] utilizationSecIdle 25912
scalar OsgEarthNet.uav[56] utilizationEnergyMission 176062.41571426
scalar OsgEarthNet.uav[56] utilizationEnergyMaintenance 64472.346786499
scalar OsgEarthNet.uav[56] utilizationEnergyCharge 238426.43066406
scalar OsgEarthNet.uav[56] utilizationEnergyOverdrawMission 0
scalar OsgEarthNet.uav[56] utilizationEnergyOverdrawMaintenance 0
scalar OsgEarthNet.uav[56] utilizationCountMissions 52
scalar OsgEarthNet.uav[56] utilizationCountManeuversMission 1087
scalar OsgEarthNet.uav[56] utilizationCountManeuversMaintenance 103
scalar OsgEarthNet.uav[56] utilizationCountChargeState 52
scalar OsgEarthNet.uav[56] utilizationCountOverdrawnAfterMission 0
scalar OsgEarthNet.uav[56] utilizationCountIdleState 51
scalar OsgEarthNet.uav[56] utilizationFail 0
scalar OsgEarthNet.uav[56] simulationTime 259200
scalar OsgEarthNet.uav[57] utilizationSecMission 30804.509984538
scalar OsgEarthNet.uav[57] utilizationSecMaintenance 17634.879703131
scalar OsgEarthNet.uav[57] utilizationSecCharge 181676.94113434
scalar OsgEarthNet.uav[57] utilizationSecIdle 29083.668177988
scalar OsgEarthNet.uav[57] utilizationEnergyMission 149287.171772
scalar OsgEarthNet.uav[57] utilizationEnergyMaintenance 83388.467273712
scalar OsgEarthNet.uav[57] utilizationEnergyCharge 231088.71923828
scalar OsgEarthNet.uav[57] utilizationEnergyOverdrawMission 0
scalar OsgEarthNet.uav[57] utilizationEnergyOverdrawMaintenance 0
scalar OsgEarthNet.uav[57] utilizationCountMissions 54
scalar OsgEarthNet.uav[57] utilizationCountManeuversMission 1020
scalar OsgEarthNet.uav[57] utilizationCountManeuversMaintenance 108
scalar OsgEarthNet.uav[57] utilizationCountChargeState 54
scalar OsgEarthNet.uav[57] utilizationCountOverdrawnAfterMission 0
scalar OsgEarthNet.uav[57] utilizationCountIdleState 54
scalar OsgEarthNet.uav[57] utilizationFail 0
scalar OsgEarthNet.uav[57] simulationTime 259200
scalar OsgEarthNet.uav[58] utilizationSecMission 34976.761759613
scalar OsgEarthNet.uav[58] utilizationSecMaintenance 14595.361242106
scalar OsgEarthNet.uav[58] utilizationSecCharge 182235.87399828
scalar OsgEarthNet.uav[58] utilizationSecIdle 27392.002
scalar OsgEarthNet.uav[58] utilizationEnergyMission 171906.09608078
scalar OsgEarthNet.uav[58] utilizationEnergyMaintenance 67156.427394867
scalar OsgEarthNet.uav[58] utilizationEnergyCharge 237359.16308594
scalar OsgEarthNet.uav[58] utilizationEnergyOverdrawMission 0
scalar OsgEarthNet.uav[58] utilizationEnergyOverdrawMaintenance 0
scalar OsgEarthNet.uav[58] utilizationCountMissions 52
scalar OsgEarthNet.uav[58] utilizationCountManeuversMission 1176
scalar OsgEarthNet.uav[58] utilizationCountManeuversMaintenance 104
scalar OsgEarthNet.uav[58] utilizationCountChargeState 52
scalar OsgEarthNet.uav[58] utilizationCountOverdrawnAfterMission 0
scalar OsgEarthNet.uav[58] utilizationCountIdleState 51
scalar OsgEarthNet.uav[58] utilizationFail 0
scalar OsgEarthNet.uav[58] simulationTime 259200
scalar OsgEarthNet.uav[59] utilizationSecMission 21198.385022294
scalar OsgEarthNet.uav[59] utilizationSecMaintenance 13837.991324151
scalar OsgEarthNet.uav[59] utilizationSecCharge 130730
scalar OsgEarthNet.uav[59] utilizationSecIdle 93433.622653555
scalar OsgEarthNet.uav[59] utilizationEnergyMission 104636.93264771
scalar OsgEarthNet.uav[59] utilizationEnergyMaintenance 65663.193031311
scalar OsgEarthNet.uav[59] utilizationEnergyCharge 169013.44580078
scalar OsgEarthNet.uav[59] utilizationEnergyOverdrawMission 0
scalar OsgEarthNet.uav[59] utilizationEnergyOverdrawMaintenance 0
scalar OsgEarthNet.uav[59] utilizationCountMissions 37
scalar OsgEarthNet.uav[59] utilizationCountManeuversMission 717
scalar OsgEarthNet.uav[59] utilizationCountManeuversMaintenance 74
scalar OsgEarthNet.uav[59] utilizationCountChargeState 37
scalar OsgEarthNet.uav[59] utilizationCountOverdrawnAfterMission 0
scalar OsgEarthNet.uav[59] utilizationCountIdleState 38
scalar OsgEarthNet.uav[59] utilizationFail 0
scalar OsgEarthNet.uav[59] simulationTime 259200
scalar OsgEarthNet.uav[60] utilizationSecMission 20895.993487052
scalar OsgEarthNet.uav[60] utilizationSecMaintenance 14852.210314206
scalar OsgEarthNet.uav[60] utilizationSecCharge 133450
scalar OsgEarthNet.uav[60] utilizationSecIdle 90001.795198741
scalar OsgEarthNet.uav[60] utilizationEnergyMission 104544.19907379
scalar OsgEarthNet.uav[60] utilizationEnergyMaintenance 70367.777393341
scalar OsgEarthNet.uav[60] utilizationEnergyCharge 171942.16210938
scalar OsgEarthNet.uav[60] utilizationEnergyOverdrawMission 0
scalar OsgEarthNet.uav[60] utilizationEnergyOverdrawMaintenance 0
scalar OsgEarthNet.uav[60] utilizationCountMissions 38
scalar OsgEarthNet.uav[60] utilizationCountManeuversMission 789
scalar OsgEarthNet.uav[60] utilizationCountManeuversMaintenance 76
scalar OsgEarthNet.uav[60] utilizationCountChargeState 38
scalar OsgEarthNet.uav[60] utilizationCountOverdrawnAfterMission 0
scalar OsgEarthNet.uav[60] utilizationCountIdleState 39
scalar OsgEarthNet.uav[60] utilizationFail 0
scalar OsgEarthNet.uav[60] simulationTime 259200
scalar OsgEarthNet.uav[61] utilizationSecMission 29003.356605429
scalar OsgEarthNet.uav[61] utilizationSecMaintenance 18764.640394571
scalar OsgEarthNet.uav[61] utilizationSecCharge 182250
scalar OsgEarthNet.uav[61] utilizationSecIdle 29182.002
scalar OsgEarthNet.uav[61] utilizationEnergyMission 141031.27720743
scalar OsgEarthNet.uav[61] utilizationEnergyMaintenance 88709.991325378
scalar OsgEarthNet.uav[61] utilizationEnergyCharge 224039.08300781
scalar OsgEarthNet.uav[61] utilizationEnergyOverdrawMission 0
scalar OsgEarthNet.uav[61] utilizationEnergyOverdrawMaintenance 0
scalar OsgEarthNet.uav[61] utilizationCountMissions 58
scalar OsgEarthNet.uav[61] utilizationCountManeuversMission 925
scalar OsgEarthNet.uav[61] utilizationCountManeuversMaintenance 117
scalar OsgEarthNet.uav[61] utilizationCountChargeState 58
scalar OsgEarthNet.uav[61] utilizationCountOverdrawnAfterMission 0
scalar OsgEarthNet.uav[61] utilizationCountIdleState 58
scalar OsgEarthNet.uav[61] utilizationFail 0
scalar OsgEarthNet.uav[61] simulationTime 259200
scalar OsgEarthNet.uav[62] utilizationSecMission 35209.673657216
scalar OsgEarthNet.uav[62] utilizationSecMaintenance 14388.321342784
scalar OsgEarthNet.uav[62] utilizationSecCharge 180030
scalar OsgEarthNet.uav[62] utilizationSecIdle 29572.004
scalar OsgEarthNet.uav[62] utilizationEnergyMission 171916.78814399
scalar OsgEarthNet.uav[62] utilizationEnergyMaintenance 65049.274383545
scalar OsgEarthNet.uav[62] utilizationEnergyCharge 233051.00195312
scalar OsgEarthNet.uav[62] utilizationEnergyOverdrawMission 0
scalar OsgEarthNet.uav[62] utilizationEnergyOverdrawMaintenance 0
scalar OsgEarthNet.uav[62] utilizationCountMissions 51
scalar OsgEarthNet.uav[62] utilizationCountManeuversMission 1132
scalar OsgEarthNet.uav[62] utilizationCountManeuversMaintenance 103
scalar OsgEarthNet.uav[62] utilizationCountChargeState 51
scalar OsgEarthNet.uav[62] utilizationCountOverdrawnAfterMission 0
scalar OsgEarthNet.uav[62] utilizationCountIdleState 51
scalar OsgEarthNet.uav[62] utilizationFail 0
scalar OsgEarthNet.uav[62] simulationTime 259200
scalar OsgEarthNet.uav[63] utilizationSecMission 32898.677411482
scalar OsgEarthNet.uav[63] utilizationSecMaintenance 16248.81287663
scalar OsgEarthNet.uav[63] utilizationSecCharge 181471.55745622
scalar OsgEarthNet.uav[63] utilizationSecIdle 28580.951255665
scalar OsgEarthNet.uav[63] utilizationEnergyMission 161743.32338333
scalar OsgEarthNet.uav[63] utilizationEnergyMaintenance 74951.144622803
scalar OsgEarthNet.uav[63] utilizationEnergyCharge 234845.52246094
scalar OsgEarthNet.uav[63] utilizationEnergyOverdrawMission 0
scalar OsgEarthNet.uav[63] utilizationEnergyOverdrawMaintenance 0
scalar OsgEarthNet.uav[63] utilizationCountMissions 52
scalar OsgEarthNet.uav[63] utilizationCountManeuversMission 1245
scalar OsgEarthNet.uav[63] utilizationCountManeuversMaintenance 104
scalar OsgEarthNet.uav[63] utilizationCountChargeState 52
scalar OsgEarthNet.uav[63] utilizationCountOverdrawnAfterMission 0
scalar OsgEarthNet.uav[63] utilizationCountIdleState 52
scalar OsgEarthNet.uav[63] utilizationFail 0
scalar OsgEarthNet.uav[63] simulationTime 259200
scalar OsgEarthNet.uav[64] utilizationSecMission 30075.259567757
scalar OsgEarthNet.uav[64] utilizationSecMaintenance 17620.67456518
scalar OsgEarthNet.uav[64] utilizationSecCharge 181336.74878523
scalar OsgEarthNet.uav[64] utilizationSecIdle 30167.316081831
scalar OsgEarthNet.uav[64] utilizationEnergyMission 146247.15394211
scalar OsgEarthNet.uav[64] utilizationEnergyMaintenance 82953.690216064
scalar OsgEarthNet.uav[64] utilizationEnergyCharge 229046.23022461
scalar OsgEarthNet.uav[64] utilizationEnergyOverdrawMission 0
scalar OsgEarthNet.uav[64] utilizationEnergyOverdrawMaintenance 0
scalar OsgEarthNet.uav[64] utilizationCountMissions 55
scalar OsgEarthNet.uav[64] utilizationCountManeuversMission 1040
scalar OsgEarthNet.uav[64] utilizationCountManeuversMaintenance 110
scalar OsgEarthNet.uav[64] utilizationCountChargeState 55
scalar OsgEarthNet.uav[64] utilizationCountOverdrawnAfterMission 0
scalar OsgEarthNet.uav[64] utilizationCountIdleState 55
scalar OsgEarthNet.uav[64] utilizationFail 0
scalar OsgEarthNet.uav[64] simulationTime 259200
scalar OsgEarthNet.uav[65] utilizationSecMission 34549.052110417
scalar OsgEarthNet.uav[65] utilizationSecMaintenance 15648.946889584
scalar OsgEarthNet.uav[65] utilizationSecCharge 184190
scalar OsgEarthNet.uav[65] utilizationSecIdle 24812
scalar OsgEarthNet.uav[65] utilizationEnergyMission 169090.24288675
scalar OsgEarthNet.uav[65] utilizationEnergyMaintenance 72575.617050171
scalar OsgEarthNet.uav[65] utilizationEnergyCharge 238393.72705078
scalar OsgEarthNet.uav[65] utilizationEnergyOverdrawMission 0
scalar OsgEarthNet.uav[65] utilizationEnergyOverdrawMaintenance 0
scalar OsgEarthNet.uav[65] utilizationCountMissions 52
scalar OsgEarthNet.uav[65] utilizationCountManeuversMission 1115
scalar OsgEarthNet.uav[65] utilizationCountManeuversMaintenance 104
scalar OsgEarthNet.uav[65] utilizationCountChargeState 52
scalar OsgEarthNet.uav[65] utilizationCountOverdrawnAfterMission 0
scalar OsgEarthNet.uav[65] utilizationCountIdleState 52
scalar OsgEarthNet.uav[65] utilizationFail 0
scalar OsgEarthNet.uav[65] simulationTime 259200
scalar OsgEarthNet.uav[66] utilizationSecMission 33262.543513551
scalar OsgEarthNet.uav[66] utilizationSecMaintenance 15924.892697843
scalar OsgEarthNet.uav[66] utilizationSecCharge 182901.61253294
scalar OsgEarthNet.uav[66] utilizationSecIdle 27110.950255665
scalar OsgEarthNet.uav[66] utilizationEnergyMission 164231.0739975
scalar OsgEarthNet.uav[66] utilizationEnergyMaintenance 73558.74810791
scalar OsgEarthNet.uav[66] utilizationEnergyCharge 236664.87939453
scalar OsgEarthNet.uav[66] utilizationEnergyOverdrawMission 0
scalar OsgEarthNet.uav[66] utilizationEnergyOverdrawMaintenance 0
scalar OsgEarthNet.uav[66] utilizationCountMissions 52
scalar OsgEarthNet.uav[66] utilizationCountManeuversMission 1215
scalar OsgEarthNet.uav[66] utilizationCountManeuversMaintenance 104
scalar OsgEarthNet.uav[66] utilizationCountChargeState 52
scalar OsgEarthNet.uav[66] utilizationCountOverdrawnAfterMission 0
scalar OsgEarthNet.uav[66] utilizationCountIdleState 52
scalar OsgEarthNet.uav[66] utilizationFail 0
scalar OsgEarthNet.uav[66] simulationTime 259200
scalar OsgEarthNet.uav[67] utilizationSecMission 31304.236945613
scalar OsgEarthNet.uav[67] utilizationSecMaintenance 16778.280474746
scalar OsgEarthNet.uav[67] utilizationSecCharge 181345.47557964
scalar OsgEarthNet.uav[67] utilizationSecIdle 29772.006
scalar OsgEarthNet.uav[67] utilizationEnergyMission 149516.11185074
scalar OsgEarthNet.uav[67] utilizationEnergyMaintenance 80616.024139404
scalar OsgEarthNet.uav[67] utilizationEnergyCharge 227862.73486328
scalar OsgEarthNet.uav[67] utilizationEnergyOverdrawMission 0
scalar OsgEarthNet.uav[67] utilizationEnergyOverdrawMaintenance 0
scalar OsgEarthNet.uav[67] utilizationCountMissions 56
scalar OsgEarthNet.uav[67] utilizationCountManeuversMission 885
scalar OsgEarthNet.uav[67] utilizationCountManeuversMaintenance 112
scalar OsgEarthNet.uav[67] utilizationCountChargeState 56
scalar OsgEarthNet.uav[67] utilizationCountOverdrawnAfterMission 0
scalar OsgEarthNet.uav[67] utilizationCountIdleState 56
scalar OsgEarthNet.uav[67] utilizationFail 0
scalar OsgEarthNet.uav[67] simulationTime 259200
scalar OsgEarthNet.uav[68] utilizationSecMission 34766.842208181
scalar OsgEarthNet.uav[68] utilizationSecMaintenance 14946.879866477
scalar OsgEarthNet.uav[68] utilizationSecCharge 183225.56886504
scalar OsgEarthNet.uav[68] utilizationSecIdle 26260.708060307
scalar OsgEarthNet.uav[68] utilizationEnergyMission 171071.94059372
scalar OsgEarthNet.uav[68] utilizationEnergyMaintenance 69261.372207642
scalar OsgEarthNet.uav[68] utilizationEnergyCharge 238000.67041016
scalar OsgEarthNet.uav[68] utilizationEnergyOverdrawMission 0
scalar OsgEarthNet.uav[68] utilizationEnergyOverdrawMaintenance 0
scalar OsgEarthNet.uav[68] utilizationCountMissions 52
scalar OsgEarthNet.uav[68] utilizationCountManeuversMission 1196
scalar OsgEarthNet.uav[68] utilizationCountManeuversMaintenance 104
scalar OsgEarthNet.uav[68] utilizationCountChargeState 52
scalar OsgEarthNet.uav[68] utilizationCountOverdrawnAfterMission 0
scalar OsgEarthNet.uav[68] utilizationCountIdleState 52
scalar OsgEarthNet.uav[68] utilizationFail 0
scalar OsgEarthNet.uav[68] simulationTime 259200
scalar OsgEarthNet.uav[69] utilizationSecMission 21717.759869714
scalar OsgEarthNet.uav[69] utilizationSecMaintenance 14730.234130286
scalar OsgEarthNet.uav[69] utilizationSecCharge 133930
scalar OsgEarthNet.uav[69] utilizationSecIdle 88822.005
scalar OsgEarthNet.uav[69] utilizationEnergyMission 107716.12725067
scalar OsgEarthNet.uav[69] utilizationEnergyMaintenance 69691.987583831
scalar OsgEarthNet.uav[69] utilizationEnergyCharge 172899.47705078
scalar OsgEarthNet.uav[69] utilizationEnergyOverdrawMission 0
scalar OsgEarthNet.uav[69] utilizationEnergyOverdrawMaintenance 0
scalar OsgEarthNet.uav[69] utilizationCountMissions 39
scalar OsgEarthNet.uav[69] utilizationCountManeuversMission 769
scalar OsgEarthNet.uav[69] utilizationCountManeuversMaintenance 78
scalar OsgEarthNet.uav[69] utilizationCountChargeState 38
scalar OsgEarthNet.uav[69] utilizationCountOverdrawnAfterMission 0
scalar OsgEarthNet.uav[69] utilizationCountIdleState 39
scalar OsgEarthNet.uav[69] utilizationFail 0
scalar OsgEarthNet.uav[69] simulationTime 259200
scalar OsgEarthNet.uav[70] utilizationSecMission 19755.993487052
scalar OsgEarthNet.uav[70] utilizationSecMaintenance 14034.714182476
scalar OsgEarthNet.uav[70] utilizationSecCharge 123347.28533047
scalar OsgEarthNet.uav[70] utilizationSecIdle 102062.006
scalar OsgEarthNet.uav[70] utilizationEnergyMission 97213.982147217
scalar OsgEarthNet.uav[70] utilizationEnergyMaintenance 66858.366378784
scalar OsgEarthNet.uav[70] utilizationEnergyCharge 158934.5513916
scalar OsgEarthNet.uav[70] utilizationEnergyOverdrawMission 0
scalar OsgEarthNet.uav[70] utilizationEnergyOverdrawMaintenance 0
scalar OsgEarthNet.uav[70] utilizationCountMissions 36
scalar OsgEarthNet.uav[70] utilizationCountManeuversMission 732
scalar OsgEarthNet.uav[70] utilizationCountManeuversMaintenance 72
scalar OsgEarthNet.uav[70] utilizationCountChargeState 36
scalar OsgEarthNet.uav[70] utilizationCountOverdrawnAfterMission 0
scalar OsgEarthNet.uav[70] utilizationCountIdleState 36
scalar OsgEarthNet.uav[70] utilizationFail 0
scalar OsgEarthNet.uav[70] simulationTime 259200
scalar OsgEarthNet.uav[71] utilizationSecMission 31002.369896253
scalar OsgEarthNet.uav[71] utilizationSecMaintenance 17006.215941368
scalar OsgEarthNet.uav[71] utilizationSecCharge 181749.40616238
scalar OsgEarthNet.uav[71] utilizationSecIdle 29442.007
scalar OsgEarthNet.uav[71] utilizationEnergyMission 148860.35910416
scalar OsgEarthNet.uav[71] utilizationEnergyMaintenance 80329.442077637
scalar OsgEarthNet.uav[71] utilizationEnergyCharge 228444.55224609
scalar OsgEarthNet.uav[71] utilizationEnergyOverdrawMission 0
scalar OsgEarthNet.uav[71] utilizationEnergyOverdrawMaintenance 0
scalar OsgEarthNet.uav[71] utilizationCountMissions 56
scalar OsgEarthNet.uav[71] utilizationCountManeuversMission 860
scalar OsgEarthNet.uav[71] utilizationCountManeuversMaintenance 112
scalar OsgEarthNet.uav[71] utilizationCountChargeState 56
scalar OsgEarthNet.uav[71] utilizationCountOverdrawnAfterMission 0
scalar OsgEarthNet.uav[71] utilizationCountIdleState 56
scalar OsgEarthNet.uav[71] utilizationFail 0
scalar OsgEarthNet.uav[71] simulationTime 259200
scalar OsgEarthNet.uav[72] utilizationSecMission 35104.3528844
scalar OsgEarthNet.uav[72] utilizationSecMaintenance 15138.15542585
scalar OsgEarthNet.uav[72] utilizationSecCharge 182638.06534246
scalar OsgEarthNet.uav[72] utilizationSecIdle 26319.42534729
scalar OsgEarthNet.uav[72] utilizationEnergyMission 172648.04941177
scalar OsgEarthNet.uav[72] utilizationEnergyMaintenance 69351.538162231
scalar OsgEarthNet.uav[72] utilizationEnergyCharge 237967.20214844
scalar OsgEarthNet.uav[72] utilizationEnergyOverdrawMission 0
scalar OsgEarthNet.uav[72] utilizationEnergyOverdrawMaintenance 0
scalar OsgEarthNet.uav[72] utilizationCountMissions 52
scalar OsgEarthNet.uav[72] utilizationCountManeuversMission 1195
scalar OsgEarthNet.uav[72] utilizationCountManeuversMaintenance 104
scalar OsgEarthNet.uav[72] utilizationCountChargeState 52
scalar OsgEarthNet.uav[72] utilizationCountOverdrawnAfterMission 0
scalar OsgEarthNet.uav[72] utilizationCountIdleState 50
scalar OsgEarthNet.uav[72] utilizationFail 0
scalar OsgEarthNet.uav[72] simulationTime 259200
scalar OsgEarthNet.uav[73] utilizationSecMission 21293.843900004
scalar OsgEarthNet.uav[73] utilizationSecMaintenance 12772.136830268
scalar OsgEarthNet.uav[73] utilizationSecCharge 126050
scalar OsgEarthNet.uav[73] utilizationSecIdle 99084.018269728
scalar OsgEarthNet.uav[73] utilizationEnergyMission 103069.75171964
scalar OsgEarthNet.uav[73] utilizationEnergyMaintenance 60554.470394134
scalar OsgEarthNet.uav[73] utilizationEnergyCharge 161909.50146484
scalar OsgEarthNet.uav[73] utilizationEnergyOverdrawMission 0
scalar OsgEarthNet.uav[73] utilizationEnergyOverdrawMaintenance 0
scalar OsgEarthNet.uav[73] utilizationCountMissions 36
scalar OsgEarthNet.uav[73] utilizationCountManeuversMission 653
scalar OsgEarthNet.uav[73] utilizationCountManeuversMaintenance 73
scalar OsgEarthNet.uav[73] utilizationCountChargeState 36
scalar OsgEarthNet.uav[73] utilizationCountOverdrawnAfterMission 0
scalar OsgEarthNet.uav[73] utilizationCountIdleState 37
scalar OsgEarthNet.uav[73] utilizationFail 0
scalar OsgEarthNet.uav[73] simulationTime 259200
scalar OsgEarthNet.uav[74] utilizationSecMission 30103.174608918
scalar OsgEarthNet.uav[74] utilizationSecMaintenance 17325.613865236
scalar OsgEarthNet.uav[74] utilizationSecCharge 180409.20152585
scalar OsgEarthNet.uav[74] utilizationSecIdle 31362.009
scalar OsgEarthNet.uav[74] utilizationEnergyMission 146901.53269958
scalar OsgEarthNet.uav[74] utilizationEnergyMaintenance 82605.266742706
scalar OsgEarthNet.uav[74] utilizationEnergyCharge 227701.65039062
scalar OsgEarthNet.uav[74] utilizationEnergyOverdrawMission 0
scalar OsgEarthNet.uav[74] utilizationEnergyOverdrawMaintenance 0
scalar OsgEarthNet.uav[74] utilizationCountMissions 55
scalar OsgEarthNet.uav[74] utilizationCountManeuversMission 933
scalar OsgEarthNet.uav[74] utilizationCountManeuversMaintenance 110
scalar OsgEarthNet.uav[74] utilizationCountChargeState 55
scalar OsgEarthNet.uav[74] utilizationCountOverdrawnAfterMission 0
scalar OsgEarthNet.uav[74] utilizationCountIdleState 55
scalar OsgEarthNet.uav[74] utilizationFail 0
scalar OsgEarthNet.uav[74] simulationTime 259200
scalar OsgEarthNet.uav[75] utilizationSecMission 34269.570380301
scalar OsgEarthNet.uav[75] utilizationSecMaintenance 15498.427619699
scalar OsgEarthNet.uav[75] utilizationSecCharge 184220
scalar OsgEarthNet.uav[75] utilizationSecIdle 25212.001
scalar OsgEarthNet.uav[75] utilizationEnergyMission 167224.66094556
scalar OsgEarthNet.uav[75] utilizationEnergyMaintenance 71255.512802124
scalar OsgEarthNet.uav[75] utilizationEnergyCharge 238955.03564453
scalar OsgEarthNet.uav[75] utilizationEnergyOverdrawMission 0
scalar OsgEarthNet.uav[75] utilizationEnergyOverdrawMaintenance 0
scalar OsgEarthNet.uav[75] utilizationCountMissions 52
scalar OsgEarthNet.uav[75] utilizationCountManeuversMission 1210
scalar OsgEarthNet.uav[75] utilizationCountManeuversMaintenance 105
scalar OsgEarthNet.uav[75] utilizationCountChargeState 52
scalar OsgEarthNet.uav[75] utilizationCountOverdrawnAfterMission 0
scalar OsgEarthNet.uav[75] utilizationCountIdleState 52
scalar OsgEarthNet.uav[75] utilizationFail 0
scalar OsgEarthNet.uav[75] simulationTime 259200
scalar OsgEarthNet.uav[76] utilizationSecMission 23230.002441285
scalar OsgEarthNet.uav[76] utilizationSecMaintenance 14767.993558715
scalar OsgEarthNet.uav[76] utilizationSecCharge 137770
scalar OsgEarthNet.uav[76] utilizationSecIdle 83432.003
scalar OsgEarthNet.uav[76] utilizationEnergyMission 112139.37755966
scalar OsgEarthNet.uav[76] utilizationEnergyMaintenance 70316.420465725
scalar OsgEarthNet.uav[76] utilizationEnergyCharge 177960.27783203
scalar OsgEarthNet.uav[76] utilizationEnergyOverdrawMission 0
scalar OsgEarthNet.uav[76] utilizationEnergyOverdrawMaintenance 0
scalar OsgEarthNet.uav[76] utilizationCountMissions 40
scalar OsgEarthNet.uav[76] utilizationCountManeuversMission 745
scalar OsgEarthNet.uav[76] utilizationCountManeuversMaintenance 80
scalar OsgEarthNet.uav[76] utilizationCountChargeState 39
scalar OsgEarthNet.uav[76] utilizationCountOverdrawnAfterMission 0
scalar OsgEarthNet.uav[76] utilizationCountIdleState 40
scalar OsgEarthNet.uav[76] utilizationFail 0
scalar OsgEarthNet.uav[76] simulationTime 259200
scalar OsgEarthNet.uav[77] utilizationSecMission 30730.442050776
scalar OsgEarthNet.uav[77] utilizationSecMaintenance 17020.128369796
scalar OsgEarthNet.uav[77] utilizationSecCharge 182984.81668991
scalar OsgEarthNet.uav[77] utilizationSecIdle 28464.611889516
scalar OsgEarthNet.uav[77] utilizationEnergyMission 148000.38814163
scalar OsgEarthNet.uav[77] utilizationEnergyMaintenance 81372.875572205
scalar OsgEarthNet.uav[77] utilizationEnergyCharge 228875.36889648
scalar OsgEarthNet.uav[77] utilizationEnergyOverdrawMission 0
scalar OsgEarthNet.uav[77] utilizationEnergyOverdrawMaintenance 0
scalar OsgEarthNet.uav[77] utilizationCountMissions 57
scalar OsgEarthNet.uav[77] utilizationCountManeuversMission 855
scalar OsgEarthNet.uav[77] utilizationCountManeuversMaintenance 114
scalar OsgEarthNet.uav[77] utilizationCountChargeState 57
scalar OsgEarthNet.uav[77] utilizationCountOverdrawnAfterMission 0
scalar OsgEarthNet.uav[77] utilizationCountIdleState 57
scalar OsgEarthNet.uav[77] utilizationFail 0
scalar OsgEarthNet.uav[77] simulationTime 259200
scalar OsgEarthNet.uav[78] utilizationSecMission 35429.034762394
scalar OsgEarthNet.uav[78] utilizationSecMaintenance 14730.950073197
scalar OsgEarthNet.uav[78] utilizationSecCharge 182150.839054
scalar OsgEarthNet.uav[78] utilizationSecIdle 26889.175110411
scalar OsgEarthNet.uav[78] utilizationEnergyMission 173730.18317032
scalar OsgEarthNet.uav[78] utilizationEnergyMaintenance 68636.779388428
scalar OsgEarthNet.uav[78] utilizationEnergyCharge 236457.20294189
scalar OsgEarthNet.uav[78] utilizationEnergyOverdrawMission 0
scalar OsgEarthNet.uav[78] utilizationEnergyOverdrawMaintenance 0
scalar OsgEarthNet.uav[78] utilizationCountMissions 52
scalar OsgEarthNet.uav[78] utilizationCountManeuversMission 1182
scalar OsgEarthNet.uav[78] utilizationCountManeuversMaintenance 104
scalar OsgEarthNet.uav[78] utilizationCountChargeState 52
scalar OsgEarthNet.uav[78] utilizationCountOverdrawnAfterMission 0
scalar OsgEarthNet.uav[78] utilizationCountIdleState 50
scalar OsgEarthNet.uav[78] utilizationFail 0
scalar OsgEarthNet.uav[78] simulationTime 259200
scalar OsgEarthNet.uav[79] utilizationSecMission 21797.868944793
scalar OsgEarthNet.uav[79] utilizationSecMaintenance 14799.038777366
scalar OsgEarthNet.uav[79] utilizationSecCharge 136930
scalar OsgEarthNet.uav[79] utilizationSecIdle 85673.091277841
scalar OsgEarthNet.uav[79] utilizationEnergyMission 105348.9289856
scalar OsgEarthNet.uav[79] utilizationEnergyMaintenance 70591.326934814
scalar OsgEarthNet.uav[79] utilizationEnergyCharge 176413.14501953
scalar OsgEarthNet.uav[79] utilizationEnergyOverdrawMission 0
scalar OsgEarthNet.uav[79] utilizationEnergyOverdrawMaintenance 0
scalar OsgEarthNet.uav[79] utilizationCountMissions 39
scalar OsgEarthNet.uav[79] utilizationCountManeuversMission 756
scalar OsgEarthNet.uav[79] utilizationCountManeuversMaintenance 78
scalar OsgEarthNet.uav[79] utilizationCountChargeState 39
scalar OsgEarthNet.uav[79] utilizationCountOverdrawnAfterMission 0
scalar OsgEarthNet.uav[79] utilizationCountIdleState 40
scalar OsgEarthNet.uav[79] utilizationFail 0
scalar OsgEarthNet.uav[79] simulationTime 259200
scalar OsgEarthNet.cs[0] usedPower 4013786.9768625
scalar OsgEarthNet.cs[0] chargedPower 4013786.9768625
scalar OsgEarthNet.cs[0] chargedMobileNodes 876
scalar OsgEarthNet.cs[0] reservations 889
scalar OsgEarthNet.cs[1] usedPower 5707826.1183125
scalar OsgEarthNet.cs[1] chargedPower 5707826.1183125
scalar OsgEarthNet.cs[1] chargedMobileNodes 1391
scalar OsgEarthNet.cs[1] reservations 1415
scalar OsgEarthNet.cs[2] usedPower 6960854.9229762
scalar OsgEarthNet.cs[2] chargedPower 6960854.9229762
scalar OsgEarthNet.cs[2] chargedMobileNodes 1476
scalar OsgEarthNet.cs[2] reservations 1522

