version 2
run Szenario_Hotel_Gabelbach-254-20180712-08:13:37-11696
attr configname Szenario_Hotel_Gabelbach
attr datetime 20180712-08:13:37
attr experiment Szenario_Hotel_Gabelbach
attr inifile omnetpp.ini
attr iterationvars "$replM=2, $biWeight=0.35, $replSearchM=1, $numUAVs=400"
attr iterationvarsf replM=2,biWeight=0.35,replSearchM=1,numUAVs=400-
attr measurement "$replM=2, $biWeight=0.35, $replSearchM=1, $numUAVs=400"
attr network OsgEarthNet
attr processid 11696
attr repetition 2
attr replication #2
attr resultdir results
attr runnumber 254
attr seedset 254
itervar biWeight 0.35
itervar numUAVs 400
itervar replM 2
itervar replSearchM 1
param *.osgEarthScene.scene "\"Szenario_Hotel_Gabelbach.earth\""
param *.playgroundLatitude 50.6830269
param *.playgroundLongitude 10.8538055
param *.playgroundWidth 3500m
param *.playgroundHeight 3500m
param *.cs[0].posX 3537m
param *.cs[0].posY 965m
param *.cs[0].posZ 538m
param *.cs[1].posX 312m
param *.cs[1].posY 1262m
param *.cs[1].posZ 539m
param *.cs[2].posX 2185m
param *.cs[2].posY 3026m
param *.cs[2].posZ 777m
param *.cs[3].posX 10m
param *.cs[3].posY 2200m
param *.cs[3].posZ 560m
param *.cs[4].posX 750m
param *.cs[4].posY 200m
param *.cs[4].posZ 540m
param *.cs[5].posX 2450m
param *.cs[5].posY 180m
param *.cs[5].posZ 524m
param *.cs[6].posX 3140m
param *.cs[6].posY 1790m
param *.cs[6].posZ 606m
param *.numCSs 3
param *.uav[*].replacementMethod 2
param *.uav[*].weightedSumWeight 0.35
param *.missionControl.replacementSearchMethod 1
param *.numUAVs 400
param *.numCSs 3
param *.numUAVs 100
param *.*.timeStep 10s
param *.uav[*].commandPreviewCommandCount 20
param *.missionControl.missionFiles "\"missions\\\\Szenario_WB_Hotel_Gabelbach_Mission_Hotel.waypoints,missions\\\\Szenario_WB_Hotel_Gabelbach_Mission_Kickelhahn.waypoints,missions\\\\Szenario_WB_Hotel_Gabelbach_Mission_Ilmenau_Sportplatz.waypoints,missions\\\\Szenario_WB_Hotel_Gabelbach_Mission_Manebach_Mitte.waypoints,missions\\\\Szenario_WB_Hotel_Gabelbach_Mission_Manebach_Sued.waypoints,missions\\\\Szenario_WB_Hotel_Gabelbach_Hover_HoheSchlaufe.waypoints,missions\\\\Szenario_WB_Hotel_Gabelbach_Hover_Kickelhahn.waypoints,missions\\\\Szenario_WB_Hotel_Gabelbach_Hover_Gabelbachskopf.waypoints,missions\\\\Szenario_WB_Hotel_Gabelbach_Hover_Dachskopf.waypoints\""
param *.uav[0].startX 3537m
param *.uav[0].startY 965m
param *.uav[0].startZ 539m
param *.uav[1].startX 312m
param *.uav[1].startY 1262m
param *.uav[1].startZ 540m
param *.uav[2].startX 2185m
param *.uav[2].startY 3026m
param *.uav[2].startZ 778m
param *.uav[3].startX 3537m
param *.uav[3].startY 965m
param *.uav[3].startZ 539m
param *.uav[4].startX 312m
param *.uav[4].startY 1262m
param *.uav[4].startZ 540m
param *.uav[5].startX 2185m
param *.uav[5].startY 3026m
param *.uav[5].startZ 778m
param *.uav[6].startX 3537m
param *.uav[6].startY 965m
param *.uav[6].startZ 539m
param *.uav[7].startX 312m
param *.uav[7].startY 1262m
param *.uav[7].startZ 540m
param *.uav[8].startX 2185m
param *.uav[8].startY 3026m
param *.uav[8].startZ 778m
param *.uav[9].startX 3537m
param *.uav[9].startY 965m
param *.uav[9].startZ 539m
param *.uav[10].startX 3537m
param *.uav[10].startY 965m
param *.uav[10].startZ 539m
param *.uav[11].startX 312m
param *.uav[11].startY 1262m
param *.uav[11].startZ 540m
param *.uav[12].startX 2185m
param *.uav[12].startY 3026m
param *.uav[12].startZ 778m
param *.uav[13].startX 3537m
param *.uav[13].startY 965m
param *.uav[13].startZ 539m
param *.uav[14].startX 312m
param *.uav[14].startY 1262m
param *.uav[14].startZ 540m
param *.uav[15].startX 2185m
param *.uav[15].startY 3026m
param *.uav[15].startZ 778m
param *.uav[16].startX 3537m
param *.uav[16].startY 965m
param *.uav[16].startZ 539m
param *.uav[17].startX 312m
param *.uav[17].startY 1262m
param *.uav[17].startZ 540m
param *.uav[18].startX 2185m
param *.uav[18].startY 3026m
param *.uav[18].startZ 778m
param *.uav[19].startX 3537m
param *.uav[19].startY 965m
param *.uav[19].startZ 539m
param *.uav[20].startX 3537m
param *.uav[20].startY 965m
param *.uav[20].startZ 539m
param *.uav[21].startX 312m
param *.uav[21].startY 1262m
param *.uav[21].startZ 540m
param *.uav[22].startX 2185m
param *.uav[22].startY 3026m
param *.uav[22].startZ 778m
param *.uav[23].startX 3537m
param *.uav[23].startY 965m
param *.uav[23].startZ 539m
param *.uav[24].startX 312m
param *.uav[24].startY 1262m
param *.uav[24].startZ 540m
param *.uav[25].startX 2185m
param *.uav[25].startY 3026m
param *.uav[25].startZ 778m
param *.uav[26].startX 3537m
param *.uav[26].startY 965m
param *.uav[26].startZ 539m
param *.uav[27].startX 312m
param *.uav[27].startY 1262m
param *.uav[27].startZ 540m
param *.uav[28].startX 2185m
param *.uav[28].startY 3026m
param *.uav[28].startZ 778m
param *.uav[29].startX 3537m
param *.uav[29].startY 965m
param *.uav[29].startZ 539m
param *.uav[30].startX 3537m
param *.uav[30].startY 965m
param *.uav[30].startZ 539m
param *.uav[31].startX 312m
param *.uav[31].startY 1262m
param *.uav[31].startZ 540m
param *.uav[32].startX 2185m
param *.uav[32].startY 3026m
param *.uav[32].startZ 778m
param *.uav[33].startX 3537m
param *.uav[33].startY 965m
param *.uav[33].startZ 539m
param *.uav[34].startX 312m
param *.uav[34].startY 1262m
param *.uav[34].startZ 540m
param *.uav[35].startX 2185m
param *.uav[35].startY 3026m
param *.uav[35].startZ 778m
param *.uav[36].startX 3537m
param *.uav[36].startY 965m
param *.uav[36].startZ 539m
param *.uav[37].startX 312m
param *.uav[37].startY 1262m
param *.uav[37].startZ 540m
param *.uav[38].startX 2185m
param *.uav[38].startY 3026m
param *.uav[38].startZ 778m
param *.uav[39].startX 3537m
param *.uav[39].startY 965m
param *.uav[39].startZ 539m
param *.uav[40].startX 3537m
param *.uav[40].startY 965m
param *.uav[40].startZ 539m
param *.uav[41].startX 312m
param *.uav[41].startY 1262m
param *.uav[41].startZ 540m
param *.uav[42].startX 2185m
param *.uav[42].startY 3026m
param *.uav[42].startZ 778m
param *.uav[43].startX 3537m
param *.uav[43].startY 965m
param *.uav[43].startZ 539m
param *.uav[44].startX 312m
param *.uav[44].startY 1262m
param *.uav[44].startZ 540m
param *.uav[45].startX 2185m
param *.uav[45].startY 3026m
param *.uav[45].startZ 778m
param *.uav[46].startX 3537m
param *.uav[46].startY 965m
param *.uav[46].startZ 539m
param *.uav[47].startX 312m
param *.uav[47].startY 1262m
param *.uav[47].startZ 540m
param *.uav[48].startX 2185m
param *.uav[48].startY 3026m
param *.uav[48].startZ 778m
param *.uav[49].startX 3537m
param *.uav[49].startY 965m
param *.uav[49].startZ 539m
param *.uav[50].startX 3537m
param *.uav[50].startY 965m
param *.uav[50].startZ 539m
param *.uav[51].startX 312m
param *.uav[51].startY 1262m
param *.uav[51].startZ 540m
param *.uav[52].startX 2185m
param *.uav[52].startY 3026m
param *.uav[52].startZ 778m
param *.uav[53].startX 3537m
param *.uav[53].startY 965m
param *.uav[53].startZ 539m
param *.uav[54].startX 312m
param *.uav[54].startY 1262m
param *.uav[54].startZ 540m
param *.uav[55].startX 2185m
param *.uav[55].startY 3026m
param *.uav[55].startZ 778m
param *.uav[56].startX 3537m
param *.uav[56].startY 965m
param *.uav[56].startZ 539m
param *.uav[57].startX 312m
param *.uav[57].startY 1262m
param *.uav[57].startZ 540m
param *.uav[58].startX 2185m
param *.uav[58].startY 3026m
param *.uav[58].startZ 778m
param *.uav[59].startX 3537m
param *.uav[59].startY 965m
param *.uav[59].startZ 539m
param *.uav[60].startX 3537m
param *.uav[60].startY 965m
param *.uav[60].startZ 539m
param *.uav[61].startX 312m
param *.uav[61].startY 1262m
param *.uav[61].startZ 540m
param *.uav[62].startX 2185m
param *.uav[62].startY 3026m
param *.uav[62].startZ 778m
param *.uav[63].startX 3537m
param *.uav[63].startY 965m
param *.uav[63].startZ 539m
param *.uav[64].startX 312m
param *.uav[64].startY 1262m
param *.uav[64].startZ 540m
param *.uav[65].startX 2185m
param *.uav[65].startY 3026m
param *.uav[65].startZ 778m
param *.uav[66].startX 3537m
param *.uav[66].startY 965m
param *.uav[66].startZ 539m
param *.uav[67].startX 312m
param *.uav[67].startY 1262m
param *.uav[67].startZ 540m
param *.uav[68].startX 2185m
param *.uav[68].startY 3026m
param *.uav[68].startZ 778m
param *.uav[69].startX 3537m
param *.uav[69].startY 965m
param *.uav[69].startZ 539m
param *.uav[70].startX 3537m
param *.uav[70].startY 965m
param *.uav[70].startZ 539m
param *.uav[71].startX 312m
param *.uav[71].startY 1262m
param *.uav[71].startZ 540m
param *.uav[72].startX 2185m
param *.uav[72].startY 3026m
param *.uav[72].startZ 778m
param *.uav[73].startX 3537m
param *.uav[73].startY 965m
param *.uav[73].startZ 539m
param *.uav[74].startX 312m
param *.uav[74].startY 1262m
param *.uav[74].startZ 540m
param *.uav[75].startX 2185m
param *.uav[75].startY 3026m
param *.uav[75].startZ 778m
param *.uav[76].startX 3537m
param *.uav[76].startY 965m
param *.uav[76].startZ 539m
param *.uav[77].startX 312m
param *.uav[77].startY 1262m
param *.uav[77].startZ 540m
param *.uav[78].startX 2185m
param *.uav[78].startY 3026m
param *.uav[78].startZ 778m
param *.uav[79].startX 3537m
param *.uav[79].startY 965m
param *.uav[79].startZ 539m
param *.uav[80].startX 3537m
param *.uav[80].startY 965m
param *.uav[80].startZ 539m
param *.uav[81].startX 312m
param *.uav[81].startY 1262m
param *.uav[81].startZ 540m
param *.uav[82].startX 2185m
param *.uav[82].startY 3026m
param *.uav[82].startZ 778m
param *.uav[83].startX 3537m
param *.uav[83].startY 965m
param *.uav[83].startZ 539m
param *.uav[84].startX 312m
param *.uav[84].startY 1262m
param *.uav[84].startZ 540m
param *.uav[85].startX 2185m
param *.uav[85].startY 3026m
param *.uav[85].startZ 778m
param *.uav[86].startX 3537m
param *.uav[86].startY 965m
param *.uav[86].startZ 539m
param *.uav[87].startX 312m
param *.uav[87].startY 1262m
param *.uav[87].startZ 540m
param *.uav[88].startX 2185m
param *.uav[88].startY 3026m
param *.uav[88].startZ 778m
param *.uav[89].startX 3537m
param *.uav[89].startY 965m
param *.uav[89].startZ 539m
param *.uav[90].startX 3537m
param *.uav[90].startY 965m
param *.uav[90].startZ 539m
param *.uav[91].startX 312m
param *.uav[91].startY 1262m
param *.uav[91].startZ 540m
param *.uav[92].startX 2185m
param *.uav[92].startY 3026m
param *.uav[92].startZ 778m
param *.uav[93].startX 3537m
param *.uav[93].startY 965m
param *.uav[93].startZ 539m
param *.uav[94].startX 312m
param *.uav[94].startY 1262m
param *.uav[94].startZ 540m
param *.uav[95].startX 2185m
param *.uav[95].startY 3026m
param *.uav[95].startZ 778m
param *.uav[96].startX 3537m
param *.uav[96].startY 965m
param *.uav[96].startZ 539m
param *.uav[97].startX 312m
param *.uav[97].startY 1262m
param *.uav[97].startZ 540m
param *.uav[98].startX 2185m
param *.uav[98].startY 3026m
param *.uav[98].startZ 778m
param *.uav[99].startX 3537m
param *.uav[99].startY 965m
param *.uav[99].startZ 539m
param *.osgEarthScene.scene "\"boston.earth\""
param *.playgroundLatitude 42.3558
param *.playgroundLongitude -71.0677
param *.playgroundWidth 400m
param *.playgroundHeight 200m
param *.channelController.connectionColor "\"#0000FF40\""
param *.channelController.showConnections false
param *.uav[*].modelURL "\"quadrocopter.small.obj.15.scale.0,0,90.rot\""
param *.uav[*].labelColor "\"#FF7C00CC\""
param *.uav[*].label2Color "\"#FF7C00EE\""
param *.uav[*].batteryCapacity 5200mAh
param *.uav[*].batteryRemaining uav[index].batteryCapacity
param *.uav[*].predictionQuantile 0.95
param *.uav[*].replacementMethod 2
param *.uav[*].weightedSumWeight 0.5
param *.cs[*].modelURL "\"chargingstation_v1.osgt.2.scale.0,0,0.rot.0,0,-15e-1.trans\""
param *.cs[*].spotsWaiting 999
param *.cs[*].spotsCharging 999
param *.cs[*].chargeEffectivenessPercentage 100
param *.cs[*].nonLinearPhaseStartPercentage 85
param *.cs[*].chargeCurrent 6.0A
param *.cs[*].prioritizeFastCharge true
param *.missionControl.replacementSearchMethod 0
param *.*.timeStep 9s

scalar OsgEarthNet.uav[0] utilizationSecMission 480
scalar OsgEarthNet.uav[0] utilizationSecMaintenance 447.1303002674
scalar OsgEarthNet.uav[0] utilizationSecCharge 3420
scalar OsgEarthNet.uav[0] utilizationSecIdle 254852.86869973
scalar OsgEarthNet.uav[0] utilizationEnergyMission 2452.0539245605
scalar OsgEarthNet.uav[0] utilizationEnergyMaintenance 2057.8771476746
scalar OsgEarthNet.uav[0] utilizationEnergyCharge 4338.6923828125
scalar OsgEarthNet.uav[0] utilizationEnergyOverdrawMission 0
scalar OsgEarthNet.uav[0] utilizationEnergyOverdrawMaintenance 0
scalar OsgEarthNet.uav[0] utilizationCountMissions 1
scalar OsgEarthNet.uav[0] utilizationCountManeuversMission 24
scalar OsgEarthNet.uav[0] utilizationCountManeuversMaintenance 2
scalar OsgEarthNet.uav[0] utilizationCountChargeState 1
scalar OsgEarthNet.uav[0] utilizationCountOverdrawnAfterMission 0
scalar OsgEarthNet.uav[0] utilizationCountIdleState 2
scalar OsgEarthNet.uav[0] utilizationFail 0
scalar OsgEarthNet.uav[0] simulationTime 259200
scalar OsgEarthNet.uav[1] utilizationSecMission 213.40226662093
scalar OsgEarthNet.uav[1] utilizationSecMaintenance 292.41944606525
scalar OsgEarthNet.uav[1] utilizationSecCharge 2270
scalar OsgEarthNet.uav[1] utilizationSecIdle 256424.17728731
scalar OsgEarthNet.uav[1] utilizationEnergyMission 939.68746948242
scalar OsgEarthNet.uav[1] utilizationEnergyMaintenance 1470.2720565796
scalar OsgEarthNet.uav[1] utilizationEnergyCharge 2409.9650878906
scalar OsgEarthNet.uav[1] utilizationEnergyOverdrawMission 0
scalar OsgEarthNet.uav[1] utilizationEnergyOverdrawMaintenance 0
scalar OsgEarthNet.uav[1] utilizationCountMissions 1
scalar OsgEarthNet.uav[1] utilizationCountManeuversMission 3
scalar OsgEarthNet.uav[1] utilizationCountManeuversMaintenance 2
scalar OsgEarthNet.uav[1] utilizationCountChargeState 1
scalar OsgEarthNet.uav[1] utilizationCountOverdrawnAfterMission 0
scalar OsgEarthNet.uav[1] utilizationCountIdleState 2
scalar OsgEarthNet.uav[1] utilizationFail 0
scalar OsgEarthNet.uav[1] simulationTime 259200
scalar OsgEarthNet.uav[2] utilizationSecMission 43006.859460788
scalar OsgEarthNet.uav[2] utilizationSecMaintenance 16290.944060796
scalar OsgEarthNet.uav[2] utilizationSecCharge 197280.7425197
scalar OsgEarthNet.uav[2] utilizationSecIdle 2621.4529587171
scalar OsgEarthNet.uav[2] utilizationEnergyMission 205165.7085762
scalar OsgEarthNet.uav[2] utilizationEnergyMaintenance 74760.37783432
scalar OsgEarthNet.uav[2] utilizationEnergyCharge 277581.63208008
scalar OsgEarthNet.uav[2] utilizationEnergyOverdrawMission 0
scalar OsgEarthNet.uav[2] utilizationEnergyOverdrawMaintenance 0
scalar OsgEarthNet.uav[2] utilizationCountMissions 60
scalar OsgEarthNet.uav[2] utilizationCountManeuversMission 1140
scalar OsgEarthNet.uav[2] utilizationCountManeuversMaintenance 120
scalar OsgEarthNet.uav[2] utilizationCountChargeState 60
scalar OsgEarthNet.uav[2] utilizationCountOverdrawnAfterMission 0
scalar OsgEarthNet.uav[2] utilizationCountIdleState 12
scalar OsgEarthNet.uav[2] utilizationFail 0
scalar OsgEarthNet.uav[2] simulationTime 259200
scalar OsgEarthNet.uav[3] utilizationSecMission 540
scalar OsgEarthNet.uav[3] utilizationSecMaintenance 447.1303002674
scalar OsgEarthNet.uav[3] utilizationSecCharge 3700
scalar OsgEarthNet.uav[3] utilizationSecIdle 254512.86869973
scalar OsgEarthNet.uav[3] utilizationEnergyMission 2158.3358917236
scalar OsgEarthNet.uav[3] utilizationEnergyMaintenance 2113.0836906433
scalar OsgEarthNet.uav[3] utilizationEnergyCharge 4732.7973632812
scalar OsgEarthNet.uav[3] utilizationEnergyOverdrawMission 0
scalar OsgEarthNet.uav[3] utilizationEnergyOverdrawMaintenance 0
scalar OsgEarthNet.uav[3] utilizationCountMissions 1
scalar OsgEarthNet.uav[3] utilizationCountManeuversMission 27
scalar OsgEarthNet.uav[3] utilizationCountManeuversMaintenance 2
scalar OsgEarthNet.uav[3] utilizationCountChargeState 1
scalar OsgEarthNet.uav[3] utilizationCountOverdrawnAfterMission 0
scalar OsgEarthNet.uav[3] utilizationCountIdleState 2
scalar OsgEarthNet.uav[3] utilizationFail 0
scalar OsgEarthNet.uav[3] simulationTime 259200
scalar OsgEarthNet.uav[4] utilizationSecMission 14505.111921852
scalar OsgEarthNet.uav[4] utilizationSecMaintenance 10772.949555743
scalar OsgEarthNet.uav[4] utilizationSecCharge 99870
scalar OsgEarthNet.uav[4] utilizationSecIdle 134051.93752241
scalar OsgEarthNet.uav[4] utilizationEnergyMission 71811.812198639
scalar OsgEarthNet.uav[4] utilizationEnergyMaintenance 51705.495880127
scalar OsgEarthNet.uav[4] utilizationEnergyCharge 122307.42724609
scalar OsgEarthNet.uav[4] utilizationEnergyOverdrawMission 0
scalar OsgEarthNet.uav[4] utilizationEnergyOverdrawMaintenance 0
scalar OsgEarthNet.uav[4] utilizationCountMissions 32
scalar OsgEarthNet.uav[4] utilizationCountManeuversMission 508
scalar OsgEarthNet.uav[4] utilizationCountManeuversMaintenance 64
scalar OsgEarthNet.uav[4] utilizationCountChargeState 32
scalar OsgEarthNet.uav[4] utilizationCountOverdrawnAfterMission 0
scalar OsgEarthNet.uav[4] utilizationCountIdleState 33
scalar OsgEarthNet.uav[4] utilizationFail 0
scalar OsgEarthNet.uav[4] simulationTime 259200
scalar OsgEarthNet.uav[5] utilizationSecMission 40997.076409691
scalar OsgEarthNet.uav[5] utilizationSecMaintenance 17918.74013166
scalar OsgEarthNet.uav[5] utilizationSecCharge 196484.34564461
scalar OsgEarthNet.uav[5] utilizationSecIdle 3799.83681404
scalar OsgEarthNet.uav[5] utilizationEnergyMission 194612.10910034
scalar OsgEarthNet.uav[5] utilizationEnergyMaintenance 84025.828590393
scalar OsgEarthNet.uav[5] utilizationEnergyCharge 277478.7232666
scalar OsgEarthNet.uav[5] utilizationEnergyOverdrawMission 0
scalar OsgEarthNet.uav[5] utilizationEnergyOverdrawMaintenance 0
scalar OsgEarthNet.uav[5] utilizationCountMissions 61
scalar OsgEarthNet.uav[5] utilizationCountManeuversMission 1218
scalar OsgEarthNet.uav[5] utilizationCountManeuversMaintenance 122
scalar OsgEarthNet.uav[5] utilizationCountChargeState 61
scalar OsgEarthNet.uav[5] utilizationCountOverdrawnAfterMission 0
scalar OsgEarthNet.uav[5] utilizationCountIdleState 9
scalar OsgEarthNet.uav[5] utilizationFail 0
scalar OsgEarthNet.uav[5] simulationTime 259200
scalar OsgEarthNet.uav[6] utilizationSecMission 10759.704289189
scalar OsgEarthNet.uav[6] utilizationSecMaintenance 7228.2927108111
scalar OsgEarthNet.uav[6] utilizationSecCharge 66690
scalar OsgEarthNet.uav[6] utilizationSecIdle 174522.002
scalar OsgEarthNet.uav[6] utilizationEnergyMission 52969.972226667
scalar OsgEarthNet.uav[6] utilizationEnergyMaintenance 34568.742649078
scalar OsgEarthNet.uav[6] utilizationEnergyCharge 85960.919433594
scalar OsgEarthNet.uav[6] utilizationEnergyOverdrawMission 0
scalar OsgEarthNet.uav[6] utilizationEnergyOverdrawMaintenance 0
scalar OsgEarthNet.uav[6] utilizationCountMissions 19
scalar OsgEarthNet.uav[6] utilizationCountManeuversMission 382
scalar OsgEarthNet.uav[6] utilizationCountManeuversMaintenance 39
scalar OsgEarthNet.uav[6] utilizationCountChargeState 19
scalar OsgEarthNet.uav[6] utilizationCountOverdrawnAfterMission 0
scalar OsgEarthNet.uav[6] utilizationCountIdleState 20
scalar OsgEarthNet.uav[6] utilizationFail 0
scalar OsgEarthNet.uav[6] simulationTime 259200
scalar OsgEarthNet.uav[7] utilizationSecMission 9414.9459573808
scalar OsgEarthNet.uav[7] utilizationSecMaintenance 6246.0042054742
scalar OsgEarthNet.uav[7] utilizationSecCharge 59710
scalar OsgEarthNet.uav[7] utilizationSecIdle 183829.04883714
scalar OsgEarthNet.uav[7] utilizationEnergyMission 47071.672275543
scalar OsgEarthNet.uav[7] utilizationEnergyMaintenance 29687.828056335
scalar OsgEarthNet.uav[7] utilizationEnergyCharge 75254.258544922
scalar OsgEarthNet.uav[7] utilizationEnergyOverdrawMission 0
scalar OsgEarthNet.uav[7] utilizationEnergyOverdrawMaintenance 0
scalar OsgEarthNet.uav[7] utilizationCountMissions 18
scalar OsgEarthNet.uav[7] utilizationCountManeuversMission 337
scalar OsgEarthNet.uav[7] utilizationCountManeuversMaintenance 36
scalar OsgEarthNet.uav[7] utilizationCountChargeState 18
scalar OsgEarthNet.uav[7] utilizationCountOverdrawnAfterMission 0
scalar OsgEarthNet.uav[7] utilizationCountIdleState 19
scalar OsgEarthNet.uav[7] utilizationFail 0
scalar OsgEarthNet.uav[7] simulationTime 259200
scalar OsgEarthNet.uav[8] utilizationSecMission 41194.388437321
scalar OsgEarthNet.uav[8] utilizationSecMaintenance 18183.499464039
scalar OsgEarthNet.uav[8] utilizationSecCharge 198252.89148472
scalar OsgEarthNet.uav[8] utilizationSecIdle 1569.2196139157
scalar OsgEarthNet.uav[8] utilizationEnergyMission 198594.44672012
scalar OsgEarthNet.uav[8] utilizationEnergyMaintenance 83981.218425751
scalar OsgEarthNet.uav[8] utilizationEnergyCharge 279698.02539062
scalar OsgEarthNet.uav[8] utilizationEnergyOverdrawMission 0
scalar OsgEarthNet.uav[8] utilizationEnergyOverdrawMaintenance 0
scalar OsgEarthNet.uav[8] utilizationCountMissions 61
scalar OsgEarthNet.uav[8] utilizationCountManeuversMission 1234
scalar OsgEarthNet.uav[8] utilizationCountManeuversMaintenance 122
scalar OsgEarthNet.uav[8] utilizationCountChargeState 61
scalar OsgEarthNet.uav[8] utilizationCountOverdrawnAfterMission 0
scalar OsgEarthNet.uav[8] utilizationCountIdleState 11
scalar OsgEarthNet.uav[8] utilizationFail 0
scalar OsgEarthNet.uav[8] simulationTime 259200
scalar OsgEarthNet.uav[9] utilizationSecMission 13185.001220642
scalar OsgEarthNet.uav[9] utilizationSecMaintenance 8431.3988011919
scalar OsgEarthNet.uav[9] utilizationSecCharge 80360
scalar OsgEarthNet.uav[9] utilizationSecIdle 157223.59897817
scalar OsgEarthNet.uav[9] utilizationEnergyMission 65049.013591766
scalar OsgEarthNet.uav[9] utilizationEnergyMaintenance 39729.02400589
scalar OsgEarthNet.uav[9] utilizationEnergyCharge 103268.57568359
scalar OsgEarthNet.uav[9] utilizationEnergyOverdrawMission 0
scalar OsgEarthNet.uav[9] utilizationEnergyOverdrawMaintenance 0
scalar OsgEarthNet.uav[9] utilizationCountMissions 23
scalar OsgEarthNet.uav[9] utilizationCountManeuversMission 451
scalar OsgEarthNet.uav[9] utilizationCountManeuversMaintenance 46
scalar OsgEarthNet.uav[9] utilizationCountChargeState 23
scalar OsgEarthNet.uav[9] utilizationCountOverdrawnAfterMission 0
scalar OsgEarthNet.uav[9] utilizationCountIdleState 24
scalar OsgEarthNet.uav[9] utilizationFail 0
scalar OsgEarthNet.uav[9] simulationTime 259200
scalar OsgEarthNet.uav[10] utilizationSecMission 12654.634106813
scalar OsgEarthNet.uav[10] utilizationSecMaintenance 8739.9196401163
scalar OsgEarthNet.uav[10] utilizationSecCharge 81120
scalar OsgEarthNet.uav[10] utilizationSecIdle 156685.44525307
scalar OsgEarthNet.uav[10] utilizationEnergyMission 61438.128082275
scalar OsgEarthNet.uav[10] utilizationEnergyMaintenance 41479.086994171
scalar OsgEarthNet.uav[10] utilizationEnergyCharge 104471.53564453
scalar OsgEarthNet.uav[10] utilizationEnergyOverdrawMission 0
scalar OsgEarthNet.uav[10] utilizationEnergyOverdrawMaintenance 0
scalar OsgEarthNet.uav[10] utilizationCountMissions 23
scalar OsgEarthNet.uav[10] utilizationCountManeuversMission 446
scalar OsgEarthNet.uav[10] utilizationCountManeuversMaintenance 46
scalar OsgEarthNet.uav[10] utilizationCountChargeState 23
scalar OsgEarthNet.uav[10] utilizationCountOverdrawnAfterMission 0
scalar OsgEarthNet.uav[10] utilizationCountIdleState 24
scalar OsgEarthNet.uav[10] utilizationFail 0
scalar OsgEarthNet.uav[10] simulationTime 259200
scalar OsgEarthNet.uav[11] utilizationSecMission 13898.363623326
scalar OsgEarthNet.uav[11] utilizationSecMaintenance 8690.7234987971
scalar OsgEarthNet.uav[11] utilizationSecCharge 82378.908877877
scalar OsgEarthNet.uav[11] utilizationSecIdle 154232.003
scalar OsgEarthNet.uav[11] utilizationEnergyMission 67824.899036407
scalar OsgEarthNet.uav[11] utilizationEnergyMaintenance 41211.080875397
scalar OsgEarthNet.uav[11] utilizationEnergyCharge 105056.25097656
scalar OsgEarthNet.uav[11] utilizationEnergyOverdrawMission 0
scalar OsgEarthNet.uav[11] utilizationEnergyOverdrawMaintenance 0
scalar OsgEarthNet.uav[11] utilizationCountMissions 27
scalar OsgEarthNet.uav[11] utilizationCountManeuversMission 488
scalar OsgEarthNet.uav[11] utilizationCountManeuversMaintenance 54
scalar OsgEarthNet.uav[11] utilizationCountChargeState 27
scalar OsgEarthNet.uav[11] utilizationCountOverdrawnAfterMission 0
scalar OsgEarthNet.uav[11] utilizationCountIdleState 20
scalar OsgEarthNet.uav[11] utilizationFail 0
scalar OsgEarthNet.uav[11] simulationTime 259200
scalar OsgEarthNet.uav[12] utilizationSecMission 40542.222803826
scalar OsgEarthNet.uav[12] utilizationSecMaintenance 18423.737525177
scalar OsgEarthNet.uav[12] utilizationSecCharge 197192.034671
scalar OsgEarthNet.uav[12] utilizationSecIdle 3042.004
scalar OsgEarthNet.uav[12] utilizationEnergyMission 195990.21927643
scalar OsgEarthNet.uav[12] utilizationEnergyMaintenance 85211.965602875
scalar OsgEarthNet.uav[12] utilizationEnergyCharge 279553.43457031
scalar OsgEarthNet.uav[12] utilizationEnergyOverdrawMission 0
scalar OsgEarthNet.uav[12] utilizationEnergyOverdrawMaintenance 0
scalar OsgEarthNet.uav[12] utilizationCountMissions 61
scalar OsgEarthNet.uav[12] utilizationCountManeuversMission 1260
scalar OsgEarthNet.uav[12] utilizationCountManeuversMaintenance 122
scalar OsgEarthNet.uav[12] utilizationCountChargeState 61
scalar OsgEarthNet.uav[12] utilizationCountOverdrawnAfterMission 0
scalar OsgEarthNet.uav[12] utilizationCountIdleState 12
scalar OsgEarthNet.uav[12] utilizationFail 0
scalar OsgEarthNet.uav[12] simulationTime 259200
scalar OsgEarthNet.uav[13] utilizationSecMission 11285.001220642
scalar OsgEarthNet.uav[13] utilizationSecMaintenance 6739.0705363047
scalar OsgEarthNet.uav[13] utilizationSecCharge 66460
scalar OsgEarthNet.uav[13] utilizationSecIdle 174715.92724305
scalar OsgEarthNet.uav[13] utilizationEnergyMission 54911.119689941
scalar OsgEarthNet.uav[13] utilizationEnergyMaintenance 31989.649490356
scalar OsgEarthNet.uav[13] utilizationEnergyCharge 85483.249023438
scalar OsgEarthNet.uav[13] utilizationEnergyOverdrawMission 0
scalar OsgEarthNet.uav[13] utilizationEnergyOverdrawMaintenance 0
scalar OsgEarthNet.uav[13] utilizationCountMissions 19
scalar OsgEarthNet.uav[13] utilizationCountManeuversMission 356
scalar OsgEarthNet.uav[13] utilizationCountManeuversMaintenance 38
scalar OsgEarthNet.uav[13] utilizationCountChargeState 19
scalar OsgEarthNet.uav[13] utilizationCountOverdrawnAfterMission 0
scalar OsgEarthNet.uav[13] utilizationCountIdleState 20
scalar OsgEarthNet.uav[13] utilizationFail 0
scalar OsgEarthNet.uav[13] simulationTime 259200
scalar OsgEarthNet.uav[14] utilizationSecMission 11435.359557106
scalar OsgEarthNet.uav[14] utilizationSecMaintenance 8347.1785772671
scalar OsgEarthNet.uav[14] utilizationSecCharge 77820
scalar OsgEarthNet.uav[14] utilizationSecIdle 161597.46086563
scalar OsgEarthNet.uav[14] utilizationEnergyMission 55135.803974152
scalar OsgEarthNet.uav[14] utilizationEnergyMaintenance 39822.802787781
scalar OsgEarthNet.uav[14] utilizationEnergyCharge 95020.693359375
scalar OsgEarthNet.uav[14] utilizationEnergyOverdrawMission 0
scalar OsgEarthNet.uav[14] utilizationEnergyOverdrawMaintenance 0
scalar OsgEarthNet.uav[14] utilizationCountMissions 25
scalar OsgEarthNet.uav[14] utilizationCountManeuversMission 392
scalar OsgEarthNet.uav[14] utilizationCountManeuversMaintenance 50
scalar OsgEarthNet.uav[14] utilizationCountChargeState 25
scalar OsgEarthNet.uav[14] utilizationCountOverdrawnAfterMission 0
scalar OsgEarthNet.uav[14] utilizationCountIdleState 26
scalar OsgEarthNet.uav[14] utilizationFail 0
scalar OsgEarthNet.uav[14] simulationTime 259200
scalar OsgEarthNet.uav[15] utilizationSecMission 41148.026710188
scalar OsgEarthNet.uav[15] utilizationSecMaintenance 17770.255832584
scalar OsgEarthNet.uav[15] utilizationSecCharge 198089.71445723
scalar OsgEarthNet.uav[15] utilizationSecIdle 2192.002
scalar OsgEarthNet.uav[15] utilizationEnergyMission 200988.08523178
scalar OsgEarthNet.uav[15] utilizationEnergyMaintenance 81912.673728943
scalar OsgEarthNet.uav[15] utilizationEnergyCharge 279894.0645752
scalar OsgEarthNet.uav[15] utilizationEnergyOverdrawMission 0
scalar OsgEarthNet.uav[15] utilizationEnergyOverdrawMaintenance 0
scalar OsgEarthNet.uav[15] utilizationCountMissions 62
scalar OsgEarthNet.uav[15] utilizationCountManeuversMission 1319
scalar OsgEarthNet.uav[15] utilizationCountManeuversMaintenance 124
scalar OsgEarthNet.uav[15] utilizationCountChargeState 62
scalar OsgEarthNet.uav[15] utilizationCountOverdrawnAfterMission 0
scalar OsgEarthNet.uav[15] utilizationCountIdleState 10
scalar OsgEarthNet.uav[15] utilizationFail 0
scalar OsgEarthNet.uav[15] simulationTime 259200
scalar OsgEarthNet.uav[16] utilizationSecMission 11894.634106813
scalar OsgEarthNet.uav[16] utilizationSecMaintenance 7757.688864448
scalar OsgEarthNet.uav[16] utilizationSecCharge 73630
scalar OsgEarthNet.uav[16] utilizationSecIdle 165917.67602874
scalar OsgEarthNet.uav[16] utilizationEnergyMission 57809.270858765
scalar OsgEarthNet.uav[16] utilizationEnergyMaintenance 37032.762386322
scalar OsgEarthNet.uav[16] utilizationEnergyCharge 94479.942871094
scalar OsgEarthNet.uav[16] utilizationEnergyOverdrawMission 0
scalar OsgEarthNet.uav[16] utilizationEnergyOverdrawMaintenance 0
scalar OsgEarthNet.uav[16] utilizationCountMissions 21
scalar OsgEarthNet.uav[16] utilizationCountManeuversMission 408
scalar OsgEarthNet.uav[16] utilizationCountManeuversMaintenance 42
scalar OsgEarthNet.uav[16] utilizationCountChargeState 21
scalar OsgEarthNet.uav[16] utilizationCountOverdrawnAfterMission 0
scalar OsgEarthNet.uav[16] utilizationCountIdleState 22
scalar OsgEarthNet.uav[16] utilizationFail 0
scalar OsgEarthNet.uav[16] simulationTime 259200
scalar OsgEarthNet.uav[17] utilizationSecMission 11248.555023865
scalar OsgEarthNet.uav[17] utilizationSecMaintenance 8167.3721209876
scalar OsgEarthNet.uav[17] utilizationSecCharge 75710
scalar OsgEarthNet.uav[17] utilizationSecIdle 164074.07185515
scalar OsgEarthNet.uav[17] utilizationEnergyMission 53286.768699646
scalar OsgEarthNet.uav[17] utilizationEnergyMaintenance 39001.23034668
scalar OsgEarthNet.uav[17] utilizationEnergyCharge 93168.676757812
scalar OsgEarthNet.uav[17] utilizationEnergyOverdrawMission 0
scalar OsgEarthNet.uav[17] utilizationEnergyOverdrawMaintenance 0
scalar OsgEarthNet.uav[17] utilizationCountMissions 24
scalar OsgEarthNet.uav[17] utilizationCountManeuversMission 398
scalar OsgEarthNet.uav[17] utilizationCountManeuversMaintenance 48
scalar OsgEarthNet.uav[17] utilizationCountChargeState 24
scalar OsgEarthNet.uav[17] utilizationCountOverdrawnAfterMission 0
scalar OsgEarthNet.uav[17] utilizationCountIdleState 25
scalar OsgEarthNet.uav[17] utilizationFail 0
scalar OsgEarthNet.uav[17] simulationTime 259200
scalar OsgEarthNet.uav[18] utilizationSecMission 40365.265891793
scalar OsgEarthNet.uav[18] utilizationSecMaintenance 18383.010245693
scalar OsgEarthNet.uav[18] utilizationSecCharge 197872.29751522
scalar OsgEarthNet.uav[18] utilizationSecIdle 2579.4253472904
scalar OsgEarthNet.uav[18] utilizationEnergyMission 194473.19115067
scalar OsgEarthNet.uav[18] utilizationEnergyMaintenance 85831.190166473
scalar OsgEarthNet.uav[18] utilizationEnergyCharge 280247.11572266
scalar OsgEarthNet.uav[18] utilizationEnergyOverdrawMission 0
scalar OsgEarthNet.uav[18] utilizationEnergyOverdrawMaintenance 0
scalar OsgEarthNet.uav[18] utilizationCountMissions 61
scalar OsgEarthNet.uav[18] utilizationCountManeuversMission 1217
scalar OsgEarthNet.uav[18] utilizationCountManeuversMaintenance 122
scalar OsgEarthNet.uav[18] utilizationCountChargeState 61
scalar OsgEarthNet.uav[18] utilizationCountOverdrawnAfterMission 0
scalar OsgEarthNet.uav[18] utilizationCountIdleState 9
scalar OsgEarthNet.uav[18] utilizationFail 0
scalar OsgEarthNet.uav[18] simulationTime 259200
scalar OsgEarthNet.uav[19] utilizationSecMission 8823.7509154817
scalar OsgEarthNet.uav[19] utilizationSecMaintenance 5447.8033417901
scalar OsgEarthNet.uav[19] utilizationSecCharge 53170
scalar OsgEarthNet.uav[19] utilizationSecIdle 191758.44474273
scalar OsgEarthNet.uav[19] utilizationEnergyMission 42138.292953491
scalar OsgEarthNet.uav[19] utilizationEnergyMaintenance 25704.11397171
scalar OsgEarthNet.uav[19] utilizationEnergyCharge 68529.963378906
scalar OsgEarthNet.uav[19] utilizationEnergyOverdrawMission 0
scalar OsgEarthNet.uav[19] utilizationEnergyOverdrawMaintenance 0
scalar OsgEarthNet.uav[19] utilizationCountMissions 15
scalar OsgEarthNet.uav[19] utilizationCountManeuversMission 285
scalar OsgEarthNet.uav[19] utilizationCountManeuversMaintenance 30
scalar OsgEarthNet.uav[19] utilizationCountChargeState 15
scalar OsgEarthNet.uav[19] utilizationCountOverdrawnAfterMission 0
scalar OsgEarthNet.uav[19] utilizationCountIdleState 16
scalar OsgEarthNet.uav[19] utilizationFail 0
scalar OsgEarthNet.uav[19] simulationTime 259200
scalar OsgEarthNet.uav[20] utilizationSecMission 13605.001220642
scalar OsgEarthNet.uav[20] utilizationSecMaintenance 8791.4632060725
scalar OsgEarthNet.uav[20] utilizationSecCharge 83850
scalar OsgEarthNet.uav[20] utilizationSecIdle 152953.53457329
scalar OsgEarthNet.uav[20] utilizationEnergyMission 67626.217189789
scalar OsgEarthNet.uav[20] utilizationEnergyMaintenance 41470.517181396
scalar OsgEarthNet.uav[20] utilizationEnergyCharge 107831.64453125
scalar OsgEarthNet.uav[20] utilizationEnergyOverdrawMission 0
scalar OsgEarthNet.uav[20] utilizationEnergyOverdrawMaintenance 0
scalar OsgEarthNet.uav[20] utilizationCountMissions 24
scalar OsgEarthNet.uav[20] utilizationCountManeuversMission 472
scalar OsgEarthNet.uav[20] utilizationCountManeuversMaintenance 48
scalar OsgEarthNet.uav[20] utilizationCountChargeState 24
scalar OsgEarthNet.uav[20] utilizationCountOverdrawnAfterMission 0
scalar OsgEarthNet.uav[20] utilizationCountIdleState 25
scalar OsgEarthNet.uav[20] utilizationFail 0
scalar OsgEarthNet.uav[20] simulationTime 259200
scalar OsgEarthNet.uav[21] utilizationSecMission 11621.048420251
scalar OsgEarthNet.uav[21] utilizationSecMaintenance 7680.9495338643
scalar OsgEarthNet.uav[21] utilizationSecCharge 73480
scalar OsgEarthNet.uav[21] utilizationSecIdle 166418.00104588
scalar OsgEarthNet.uav[21] utilizationEnergyMission 56327.779811859
scalar OsgEarthNet.uav[21] utilizationEnergyMaintenance 36494.962188721
scalar OsgEarthNet.uav[21] utilizationEnergyCharge 90855.043945312
scalar OsgEarthNet.uav[21] utilizationEnergyOverdrawMission 0
scalar OsgEarthNet.uav[21] utilizationEnergyOverdrawMaintenance 0
scalar OsgEarthNet.uav[21] utilizationCountMissions 23
scalar OsgEarthNet.uav[21] utilizationCountManeuversMission 380
scalar OsgEarthNet.uav[21] utilizationCountManeuversMaintenance 46
scalar OsgEarthNet.uav[21] utilizationCountChargeState 23
scalar OsgEarthNet.uav[21] utilizationCountOverdrawnAfterMission 0
scalar OsgEarthNet.uav[21] utilizationCountIdleState 24
scalar OsgEarthNet.uav[21] utilizationFail 0
scalar OsgEarthNet.uav[21] simulationTime 259200
scalar OsgEarthNet.uav[22] utilizationSecMission 42764.285119292
scalar OsgEarthNet.uav[22] utilizationSecMaintenance 16473.713880708
scalar OsgEarthNet.uav[22] utilizationSecCharge 199060
scalar OsgEarthNet.uav[22] utilizationSecIdle 902
scalar OsgEarthNet.uav[22] utilizationEnergyMission 202510.5287877
scalar OsgEarthNet.uav[22] utilizationEnergyMaintenance 75576.662078857
scalar OsgEarthNet.uav[22] utilizationEnergyCharge 279005.59814453
scalar OsgEarthNet.uav[22] utilizationEnergyOverdrawMission 0
scalar OsgEarthNet.uav[22] utilizationEnergyOverdrawMaintenance 0
scalar OsgEarthNet.uav[22] utilizationCountMissions 60
scalar OsgEarthNet.uav[22] utilizationCountManeuversMission 1109
scalar OsgEarthNet.uav[22] utilizationCountManeuversMaintenance 121
scalar OsgEarthNet.uav[22] utilizationCountChargeState 60
scalar OsgEarthNet.uav[22] utilizationCountOverdrawnAfterMission 0
scalar OsgEarthNet.uav[22] utilizationCountIdleState 11
scalar OsgEarthNet.uav[22] utilizationFail 0
scalar OsgEarthNet.uav[22] simulationTime 259200
scalar OsgEarthNet.uav[23] utilizationSecMission 12295.259259393
scalar OsgEarthNet.uav[23] utilizationSecMaintenance 7622.7237406072
scalar OsgEarthNet.uav[23] utilizationSecCharge 70350
scalar OsgEarthNet.uav[23] utilizationSecIdle 168932.016
scalar OsgEarthNet.uav[23] utilizationEnergyMission 58336.610454559
scalar OsgEarthNet.uav[23] utilizationEnergyMaintenance 36371.391017487
scalar OsgEarthNet.uav[23] utilizationEnergyCharge 90607.217773438
scalar OsgEarthNet.uav[23] utilizationEnergyOverdrawMission 0
scalar OsgEarthNet.uav[23] utilizationEnergyOverdrawMaintenance 0
scalar OsgEarthNet.uav[23] utilizationCountMissions 21
scalar OsgEarthNet.uav[23] utilizationCountManeuversMission 402
scalar OsgEarthNet.uav[23] utilizationCountManeuversMaintenance 42
scalar OsgEarthNet.uav[23] utilizationCountChargeState 20
scalar OsgEarthNet.uav[23] utilizationCountOverdrawnAfterMission 0
scalar OsgEarthNet.uav[23] utilizationCountIdleState 21
scalar OsgEarthNet.uav[23] utilizationFail 0
scalar OsgEarthNet.uav[23] simulationTime 259200
scalar OsgEarthNet.uav[24] utilizationSecMission 14766.737283395
scalar OsgEarthNet.uav[24] utilizationSecMaintenance 9388.0379696338
scalar OsgEarthNet.uav[24] utilizationSecCharge 91690
scalar OsgEarthNet.uav[24] utilizationSecIdle 143355.22374697
scalar OsgEarthNet.uav[24] utilizationEnergyMission 72826.779598236
scalar OsgEarthNet.uav[24] utilizationEnergyMaintenance 44452.310287476
scalar OsgEarthNet.uav[24] utilizationEnergyCharge 116455.39550781
scalar OsgEarthNet.uav[24] utilizationEnergyOverdrawMission 0
scalar OsgEarthNet.uav[24] utilizationEnergyOverdrawMaintenance 0
scalar OsgEarthNet.uav[24] utilizationCountMissions 27
scalar OsgEarthNet.uav[24] utilizationCountManeuversMission 516
scalar OsgEarthNet.uav[24] utilizationCountManeuversMaintenance 54
scalar OsgEarthNet.uav[24] utilizationCountChargeState 27
scalar OsgEarthNet.uav[24] utilizationCountOverdrawnAfterMission 0
scalar OsgEarthNet.uav[24] utilizationCountIdleState 28
scalar OsgEarthNet.uav[24] utilizationFail 0
scalar OsgEarthNet.uav[24] simulationTime 259200
scalar OsgEarthNet.uav[25] utilizationSecMission 40157.716668221
scalar OsgEarthNet.uav[25] utilizationSecMaintenance 18753.821397892
scalar OsgEarthNet.uav[25] utilizationSecCharge 197403.00528048
scalar OsgEarthNet.uav[25] utilizationSecIdle 2885.4556534032
scalar OsgEarthNet.uav[25] utilizationEnergyMission 195934.82956696
scalar OsgEarthNet.uav[25] utilizationEnergyMaintenance 86485.2096138
scalar OsgEarthNet.uav[25] utilizationEnergyCharge 280694.5390625
scalar OsgEarthNet.uav[25] utilizationEnergyOverdrawMission 0
scalar OsgEarthNet.uav[25] utilizationEnergyOverdrawMaintenance 0
scalar OsgEarthNet.uav[25] utilizationCountMissions 62
scalar OsgEarthNet.uav[25] utilizationCountManeuversMission 1361
scalar OsgEarthNet.uav[25] utilizationCountManeuversMaintenance 124
scalar OsgEarthNet.uav[25] utilizationCountChargeState 62
scalar OsgEarthNet.uav[25] utilizationCountOverdrawnAfterMission 0
scalar OsgEarthNet.uav[25] utilizationCountIdleState 7
scalar OsgEarthNet.uav[25] utilizationFail 0
scalar OsgEarthNet.uav[25] simulationTime 259200
scalar OsgEarthNet.uav[26] utilizationSecMission 13995.993487052
scalar OsgEarthNet.uav[26] utilizationSecMaintenance 8403.4515565806
scalar OsgEarthNet.uav[26] utilizationSecCharge 83770
scalar OsgEarthNet.uav[26] utilizationSecIdle 153030.55395637
scalar OsgEarthNet.uav[26] utilizationEnergyMission 68814.506198883
scalar OsgEarthNet.uav[26] utilizationEnergyMaintenance 39936.862304687
scalar OsgEarthNet.uav[26] utilizationEnergyCharge 107595.49755859
scalar OsgEarthNet.uav[26] utilizationEnergyOverdrawMission 0
scalar OsgEarthNet.uav[26] utilizationEnergyOverdrawMaintenance 0
scalar OsgEarthNet.uav[26] utilizationCountMissions 24
scalar OsgEarthNet.uav[26] utilizationCountManeuversMission 444
scalar OsgEarthNet.uav[26] utilizationCountManeuversMaintenance 48
scalar OsgEarthNet.uav[26] utilizationCountChargeState 24
scalar OsgEarthNet.uav[26] utilizationCountOverdrawnAfterMission 0
scalar OsgEarthNet.uav[26] utilizationCountIdleState 25
scalar OsgEarthNet.uav[26] utilizationFail 0
scalar OsgEarthNet.uav[26] simulationTime 259200
scalar OsgEarthNet.uav[27] utilizationSecMission 21027.578903783
scalar OsgEarthNet.uav[27] utilizationSecMaintenance 13048.249870357
scalar OsgEarthNet.uav[27] utilizationSecCharge 128829.55833634
scalar OsgEarthNet.uav[27] utilizationSecIdle 96294.611889516
scalar OsgEarthNet.uav[27] utilizationEnergyMission 101319.16914368
scalar OsgEarthNet.uav[27] utilizationEnergyMaintenance 62642.153045654
scalar OsgEarthNet.uav[27] utilizationEnergyCharge 163492.95385742
scalar OsgEarthNet.uav[27] utilizationEnergyOverdrawMission 0
scalar OsgEarthNet.uav[27] utilizationEnergyOverdrawMaintenance 0
scalar OsgEarthNet.uav[27] utilizationCountMissions 39
scalar OsgEarthNet.uav[27] utilizationCountManeuversMission 651
scalar OsgEarthNet.uav[27] utilizationCountManeuversMaintenance 78
scalar OsgEarthNet.uav[27] utilizationCountChargeState 39
scalar OsgEarthNet.uav[27] utilizationCountOverdrawnAfterMission 0
scalar OsgEarthNet.uav[27] utilizationCountIdleState 39
scalar OsgEarthNet.uav[27] utilizationFail 0
scalar OsgEarthNet.uav[27] simulationTime 259200
scalar OsgEarthNet.uav[28] utilizationSecMission 42673.212379727
scalar OsgEarthNet.uav[28] utilizationSecMaintenance 16281.72998116
scalar OsgEarthNet.uav[28] utilizationSecCharge 199493.05663911
scalar OsgEarthNet.uav[28] utilizationSecIdle 752
scalar OsgEarthNet.uav[28] utilizationEnergyMission 203124.24525359
scalar OsgEarthNet.uav[28] utilizationEnergyMaintenance 74737.002670288
scalar OsgEarthNet.uav[28] utilizationEnergyCharge 279404.85742188
scalar OsgEarthNet.uav[28] utilizationEnergyOverdrawMission 0
scalar OsgEarthNet.uav[28] utilizationEnergyOverdrawMaintenance 0
scalar OsgEarthNet.uav[28] utilizationCountMissions 60
scalar OsgEarthNet.uav[28] utilizationCountManeuversMission 1071
scalar OsgEarthNet.uav[28] utilizationCountManeuversMaintenance 119
scalar OsgEarthNet.uav[28] utilizationCountChargeState 60
scalar OsgEarthNet.uav[28] utilizationCountOverdrawnAfterMission 0
scalar OsgEarthNet.uav[28] utilizationCountIdleState 8
scalar OsgEarthNet.uav[28] utilizationFail 0
scalar OsgEarthNet.uav[28] simulationTime 259200
scalar OsgEarthNet.uav[29] utilizationSecMission 10263.750915482
scalar OsgEarthNet.uav[29] utilizationSecMaintenance 6538.0278769745
scalar OsgEarthNet.uav[29] utilizationSecCharge 62570
scalar OsgEarthNet.uav[29] utilizationSecIdle 179828.22020754
scalar OsgEarthNet.uav[29] utilizationEnergyMission 50660.78030777
scalar OsgEarthNet.uav[29] utilizationEnergyMaintenance 31193.96112442
scalar OsgEarthNet.uav[29] utilizationEnergyCharge 80116.006347656
scalar OsgEarthNet.uav[29] utilizationEnergyOverdrawMission 0
scalar OsgEarthNet.uav[29] utilizationEnergyOverdrawMaintenance 0
scalar OsgEarthNet.uav[29] utilizationCountMissions 18
scalar OsgEarthNet.uav[29] utilizationCountManeuversMission 357
scalar OsgEarthNet.uav[29] utilizationCountManeuversMaintenance 36
scalar OsgEarthNet.uav[29] utilizationCountChargeState 18
scalar OsgEarthNet.uav[29] utilizationCountOverdrawnAfterMission 0
scalar OsgEarthNet.uav[29] utilizationCountIdleState 19
scalar OsgEarthNet.uav[29] utilizationFail 0
scalar OsgEarthNet.uav[29] simulationTime 259200
scalar OsgEarthNet.uav[30] utilizationSecMission 11743.750915482
scalar OsgEarthNet.uav[30] utilizationSecMaintenance 7957.6590589501
scalar OsgEarthNet.uav[30] utilizationSecCharge 73990
scalar OsgEarthNet.uav[30] utilizationSecIdle 165508.58902557
scalar OsgEarthNet.uav[30] utilizationEnergyMission 57354.60748291
scalar OsgEarthNet.uav[30] utilizationEnergyMaintenance 37964.521175384
scalar OsgEarthNet.uav[30] utilizationEnergyCharge 95560.316894531
scalar OsgEarthNet.uav[30] utilizationEnergyOverdrawMission 0
scalar OsgEarthNet.uav[30] utilizationEnergyOverdrawMaintenance 0
scalar OsgEarthNet.uav[30] utilizationCountMissions 21
scalar OsgEarthNet.uav[30] utilizationCountManeuversMission 431
scalar OsgEarthNet.uav[30] utilizationCountManeuversMaintenance 42
scalar OsgEarthNet.uav[30] utilizationCountChargeState 21
scalar OsgEarthNet.uav[30] utilizationCountOverdrawnAfterMission 0
scalar OsgEarthNet.uav[30] utilizationCountIdleState 22
scalar OsgEarthNet.uav[30] utilizationFail 0
scalar OsgEarthNet.uav[30] simulationTime 259200
scalar OsgEarthNet.uav[31] utilizationSecMission 16448.059753355
scalar OsgEarthNet.uav[31] utilizationSecMaintenance 11862.354762176
scalar OsgEarthNet.uav[31] utilizationSecCharge 109647.58297775
scalar OsgEarthNet.uav[31] utilizationSecIdle 121242.00150672
scalar OsgEarthNet.uav[31] utilizationEnergyMission 80394.300392151
scalar OsgEarthNet.uav[31] utilizationEnergyMaintenance 55782.675918579
scalar OsgEarthNet.uav[31] utilizationEnergyCharge 135812.02148438
scalar OsgEarthNet.uav[31] utilizationEnergyOverdrawMission 0
scalar OsgEarthNet.uav[31] utilizationEnergyOverdrawMaintenance 0
scalar OsgEarthNet.uav[31] utilizationCountMissions 35
scalar OsgEarthNet.uav[31] utilizationCountManeuversMission 583
scalar OsgEarthNet.uav[31] utilizationCountManeuversMaintenance 70
scalar OsgEarthNet.uav[31] utilizationCountChargeState 35
scalar OsgEarthNet.uav[31] utilizationCountOverdrawnAfterMission 0
scalar OsgEarthNet.uav[31] utilizationCountIdleState 35
scalar OsgEarthNet.uav[31] utilizationFail 0
scalar OsgEarthNet.uav[31] simulationTime 259200
scalar OsgEarthNet.uav[32] utilizationSecMission 39716.542602533
scalar OsgEarthNet.uav[32] utilizationSecMaintenance 18114.781198401
scalar OsgEarthNet.uav[32] utilizationSecCharge 196946.66819907
scalar OsgEarthNet.uav[32] utilizationSecIdle 4422.007
scalar OsgEarthNet.uav[32] utilizationEnergyMission 194875.34170532
scalar OsgEarthNet.uav[32] utilizationEnergyMaintenance 85105.998836517
scalar OsgEarthNet.uav[32] utilizationEnergyCharge 279955.44824219
scalar OsgEarthNet.uav[32] utilizationEnergyOverdrawMission 0
scalar OsgEarthNet.uav[32] utilizationEnergyOverdrawMaintenance 0
scalar OsgEarthNet.uav[32] utilizationCountMissions 61
scalar OsgEarthNet.uav[32] utilizationCountManeuversMission 1307
scalar OsgEarthNet.uav[32] utilizationCountManeuversMaintenance 122
scalar OsgEarthNet.uav[32] utilizationCountChargeState 61
scalar OsgEarthNet.uav[32] utilizationCountOverdrawnAfterMission 0
scalar OsgEarthNet.uav[32] utilizationCountIdleState 8
scalar OsgEarthNet.uav[32] utilizationFail 0
scalar OsgEarthNet.uav[32] simulationTime 259200
scalar OsgEarthNet.uav[33] utilizationSecMission 11365.001220642
scalar OsgEarthNet.uav[33] utilizationSecMaintenance 6816.4065377313
scalar OsgEarthNet.uav[33] utilizationSecCharge 66850
scalar OsgEarthNet.uav[33] utilizationSecIdle 174168.59124163
scalar OsgEarthNet.uav[33] utilizationEnergyMission 54026.209224701
scalar OsgEarthNet.uav[33] utilizationEnergyMaintenance 32590.299686432
scalar OsgEarthNet.uav[33] utilizationEnergyCharge 86130.274902344
scalar OsgEarthNet.uav[33] utilizationEnergyOverdrawMission 0
scalar OsgEarthNet.uav[33] utilizationEnergyOverdrawMaintenance 0
scalar OsgEarthNet.uav[33] utilizationCountMissions 19
scalar OsgEarthNet.uav[33] utilizationCountManeuversMission 360
scalar OsgEarthNet.uav[33] utilizationCountManeuversMaintenance 38
scalar OsgEarthNet.uav[33] utilizationCountChargeState 19
scalar OsgEarthNet.uav[33] utilizationCountOverdrawnAfterMission 0
scalar OsgEarthNet.uav[33] utilizationCountIdleState 20
scalar OsgEarthNet.uav[33] utilizationFail 0
scalar OsgEarthNet.uav[33] simulationTime 259200
scalar OsgEarthNet.uav[34] utilizationSecMission 15881.255220114
scalar OsgEarthNet.uav[34] utilizationSecMaintenance 11287.450821193
scalar OsgEarthNet.uav[34] utilizationSecCharge 103609.27995869
scalar OsgEarthNet.uav[34] utilizationSecIdle 128422.013
scalar OsgEarthNet.uav[34] utilizationEnergyMission 77641.827835083
scalar OsgEarthNet.uav[34] utilizationEnergyMaintenance 53289.729961395
scalar OsgEarthNet.uav[34] utilizationEnergyCharge 129230.69580078
scalar OsgEarthNet.uav[34] utilizationEnergyOverdrawMission 0
scalar OsgEarthNet.uav[34] utilizationEnergyOverdrawMaintenance 0
scalar OsgEarthNet.uav[34] utilizationCountMissions 33
scalar OsgEarthNet.uav[34] utilizationCountManeuversMission 570
scalar OsgEarthNet.uav[34] utilizationCountManeuversMaintenance 66
scalar OsgEarthNet.uav[34] utilizationCountChargeState 33
scalar OsgEarthNet.uav[34] utilizationCountOverdrawnAfterMission 0
scalar OsgEarthNet.uav[34] utilizationCountIdleState 33
scalar OsgEarthNet.uav[34] utilizationFail 0
scalar OsgEarthNet.uav[34] simulationTime 259200
scalar OsgEarthNet.uav[35] utilizationSecMission 41101.394117442
scalar OsgEarthNet.uav[35] utilizationSecMaintenance 17672.307922526
scalar OsgEarthNet.uav[35] utilizationSecCharge 196904.29296003
scalar OsgEarthNet.uav[35] utilizationSecIdle 3522.004
scalar OsgEarthNet.uav[35] utilizationEnergyMission 197825.41825104
scalar OsgEarthNet.uav[35] utilizationEnergyMaintenance 82879.627803803
scalar OsgEarthNet.uav[35] utilizationEnergyCharge 278239.06494141
scalar OsgEarthNet.uav[35] utilizationEnergyOverdrawMission 0
scalar OsgEarthNet.uav[35] utilizationEnergyOverdrawMaintenance 0
scalar OsgEarthNet.uav[35] utilizationCountMissions 61
scalar OsgEarthNet.uav[35] utilizationCountManeuversMission 1237
scalar OsgEarthNet.uav[35] utilizationCountManeuversMaintenance 122
scalar OsgEarthNet.uav[35] utilizationCountChargeState 61
scalar OsgEarthNet.uav[35] utilizationCountOverdrawnAfterMission 0
scalar OsgEarthNet.uav[35] utilizationCountIdleState 13
scalar OsgEarthNet.uav[35] utilizationFail 0
scalar OsgEarthNet.uav[35] simulationTime 259200
scalar OsgEarthNet.uav[36] utilizationSecMission 16778.294228507
scalar OsgEarthNet.uav[36] utilizationSecMaintenance 9039.700771493
scalar OsgEarthNet.uav[36] utilizationSecCharge 95030
scalar OsgEarthNet.uav[36] utilizationSecIdle 138352.004
scalar OsgEarthNet.uav[36] utilizationEnergyMission 81810.008899848
scalar OsgEarthNet.uav[36] utilizationEnergyMaintenance 43026.377841949
scalar OsgEarthNet.uav[36] utilizationEnergyCharge 122347.05712891
scalar OsgEarthNet.uav[36] utilizationEnergyOverdrawMission 0
scalar OsgEarthNet.uav[36] utilizationEnergyOverdrawMaintenance 0
scalar OsgEarthNet.uav[36] utilizationCountMissions 27
scalar OsgEarthNet.uav[36] utilizationCountManeuversMission 484
scalar OsgEarthNet.uav[36] utilizationCountManeuversMaintenance 55
scalar OsgEarthNet.uav[36] utilizationCountChargeState 27
scalar OsgEarthNet.uav[36] utilizationCountOverdrawnAfterMission 0
scalar OsgEarthNet.uav[36] utilizationCountIdleState 28
scalar OsgEarthNet.uav[36] utilizationFail 0
scalar OsgEarthNet.uav[36] simulationTime 259200
scalar OsgEarthNet.uav[37] utilizationSecMission 15117.605318238
scalar OsgEarthNet.uav[37] utilizationSecMaintenance 10672.306985393
scalar OsgEarthNet.uav[37] utilizationSecCharge 101240
scalar OsgEarthNet.uav[37] utilizationSecIdle 132170.08669637
scalar OsgEarthNet.uav[37] utilizationEnergyMission 73899.73443985
scalar OsgEarthNet.uav[37] utilizationEnergyMaintenance 51034.522613525
scalar OsgEarthNet.uav[37] utilizationEnergyCharge 124823.73168945
scalar OsgEarthNet.uav[37] utilizationEnergyOverdrawMission 0
scalar OsgEarthNet.uav[37] utilizationEnergyOverdrawMaintenance 0
scalar OsgEarthNet.uav[37] utilizationCountMissions 32
scalar OsgEarthNet.uav[37] utilizationCountManeuversMission 502
scalar OsgEarthNet.uav[37] utilizationCountManeuversMaintenance 64
scalar OsgEarthNet.uav[37] utilizationCountChargeState 32
scalar OsgEarthNet.uav[37] utilizationCountOverdrawnAfterMission 0
scalar OsgEarthNet.uav[37] utilizationCountIdleState 33
scalar OsgEarthNet.uav[37] utilizationFail 0
scalar OsgEarthNet.uav[37] simulationTime 259200
scalar OsgEarthNet.uav[38] utilizationSecMission 41286.844635904
scalar OsgEarthNet.uav[38] utilizationSecMaintenance 17785.438777168
scalar OsgEarthNet.uav[38] utilizationSecCharge 195295.71058693
scalar OsgEarthNet.uav[38] utilizationSecIdle 4832.005
scalar OsgEarthNet.uav[38] utilizationEnergyMission 199957.73483276
scalar OsgEarthNet.uav[38] utilizationEnergyMaintenance 82439.896633148
scalar OsgEarthNet.uav[38] utilizationEnergyCharge 276244.63226318
scalar OsgEarthNet.uav[38] utilizationEnergyOverdrawMission 0
scalar OsgEarthNet.uav[38] utilizationEnergyOverdrawMaintenance 0
scalar OsgEarthNet.uav[38] utilizationCountMissions 61
scalar OsgEarthNet.uav[38] utilizationCountManeuversMission 1207
scalar OsgEarthNet.uav[38] utilizationCountManeuversMaintenance 122
scalar OsgEarthNet.uav[38] utilizationCountChargeState 61
scalar OsgEarthNet.uav[38] utilizationCountOverdrawnAfterMission 0
scalar OsgEarthNet.uav[38] utilizationCountIdleState 11
scalar OsgEarthNet.uav[38] utilizationFail 0
scalar OsgEarthNet.uav[38] simulationTime 259200
scalar OsgEarthNet.uav[39] utilizationSecMission 10984.376068062
scalar OsgEarthNet.uav[39] utilizationSecMaintenance 6808.5500885375
scalar OsgEarthNet.uav[39] utilizationSecCharge 66590
scalar OsgEarthNet.uav[39] utilizationSecIdle 174817.0728434
scalar OsgEarthNet.uav[39] utilizationEnergyMission 53498.062225342
scalar OsgEarthNet.uav[39] utilizationEnergyMaintenance 32629.63287735
scalar OsgEarthNet.uav[39] utilizationEnergyCharge 85755.295410156
scalar OsgEarthNet.uav[39] utilizationEnergyOverdrawMission 0
scalar OsgEarthNet.uav[39] utilizationEnergyOverdrawMaintenance 0
scalar OsgEarthNet.uav[39] utilizationCountMissions 19
scalar OsgEarthNet.uav[39] utilizationCountManeuversMission 367
scalar OsgEarthNet.uav[39] utilizationCountManeuversMaintenance 38
scalar OsgEarthNet.uav[39] utilizationCountChargeState 19
scalar OsgEarthNet.uav[39] utilizationCountOverdrawnAfterMission 0
scalar OsgEarthNet.uav[39] utilizationCountIdleState 20
scalar OsgEarthNet.uav[39] utilizationFail 0
scalar OsgEarthNet.uav[39] simulationTime 259200
scalar OsgEarthNet.uav[40] utilizationSecMission 12365.626373223
scalar OsgEarthNet.uav[40] utilizationSecMaintenance 7194.9225088102
scalar OsgEarthNet.uav[40] utilizationSecCharge 73190
scalar OsgEarthNet.uav[40] utilizationSecIdle 166449.45011797
scalar OsgEarthNet.uav[40] utilizationEnergyMission 59662.075824738
scalar OsgEarthNet.uav[40] utilizationEnergyMaintenance 34222.758785248
scalar OsgEarthNet.uav[40] utilizationEnergyCharge 93749.430664062
scalar OsgEarthNet.uav[40] utilizationEnergyOverdrawMission 0
scalar OsgEarthNet.uav[40] utilizationEnergyOverdrawMaintenance 0
scalar OsgEarthNet.uav[40] utilizationCountMissions 21
scalar OsgEarthNet.uav[40] utilizationCountManeuversMission 384
scalar OsgEarthNet.uav[40] utilizationCountManeuversMaintenance 42
scalar OsgEarthNet.uav[40] utilizationCountChargeState 21
scalar OsgEarthNet.uav[40] utilizationCountOverdrawnAfterMission 0
scalar OsgEarthNet.uav[40] utilizationCountIdleState 22
scalar OsgEarthNet.uav[40] utilizationFail 0
scalar OsgEarthNet.uav[40] simulationTime 259200
scalar OsgEarthNet.uav[41] utilizationSecMission 17596.903247866
scalar OsgEarthNet.uav[41] utilizationSecMaintenance 12323.324076765
scalar OsgEarthNet.uav[41] utilizationSecCharge 117670
scalar OsgEarthNet.uav[41] utilizationSecIdle 111609.77167537
scalar OsgEarthNet.uav[41] utilizationEnergyMission 86373.216274261
scalar OsgEarthNet.uav[41] utilizationEnergyMaintenance 58746.046108246
scalar OsgEarthNet.uav[41] utilizationEnergyCharge 145515.53735352
scalar OsgEarthNet.uav[41] utilizationEnergyOverdrawMission 0
scalar OsgEarthNet.uav[41] utilizationEnergyOverdrawMaintenance 0
scalar OsgEarthNet.uav[41] utilizationCountMissions 37
scalar OsgEarthNet.uav[41] utilizationCountManeuversMission 574
scalar OsgEarthNet.uav[41] utilizationCountManeuversMaintenance 74
scalar OsgEarthNet.uav[41] utilizationCountChargeState 37
scalar OsgEarthNet.uav[41] utilizationCountOverdrawnAfterMission 0
scalar OsgEarthNet.uav[41] utilizationCountIdleState 38
scalar OsgEarthNet.uav[41] utilizationFail 0
scalar OsgEarthNet.uav[41] simulationTime 259200
scalar OsgEarthNet.uav[42] utilizationSecMission 41295.877781763
scalar OsgEarthNet.uav[42] utilizationSecMaintenance 17363.471869251
scalar OsgEarthNet.uav[42] utilizationSecCharge 198538.64934899
scalar OsgEarthNet.uav[42] utilizationSecIdle 2002
scalar OsgEarthNet.uav[42] utilizationEnergyMission 199488.8341217
scalar OsgEarthNet.uav[42] utilizationEnergyMaintenance 80867.567070007
scalar OsgEarthNet.uav[42] utilizationEnergyCharge 280825.47387695
scalar OsgEarthNet.uav[42] utilizationEnergyOverdrawMission 0
scalar OsgEarthNet.uav[42] utilizationEnergyOverdrawMaintenance 0
scalar OsgEarthNet.uav[42] utilizationCountMissions 61
scalar OsgEarthNet.uav[42] utilizationCountManeuversMission 1195
scalar OsgEarthNet.uav[42] utilizationCountManeuversMaintenance 122
scalar OsgEarthNet.uav[42] utilizationCountChargeState 61
scalar OsgEarthNet.uav[42] utilizationCountOverdrawnAfterMission 0
scalar OsgEarthNet.uav[42] utilizationCountIdleState 15
scalar OsgEarthNet.uav[42] utilizationFail 0
scalar OsgEarthNet.uav[42] simulationTime 259200
scalar OsgEarthNet.uav[43] utilizationSecMission 12737.243792213
scalar OsgEarthNet.uav[43] utilizationSecMaintenance 6279.9682596934
scalar OsgEarthNet.uav[43] utilizationSecCharge 69910
scalar OsgEarthNet.uav[43] utilizationSecIdle 170272.78694809
scalar OsgEarthNet.uav[43] utilizationEnergyMission 60692.649196625
scalar OsgEarthNet.uav[43] utilizationEnergyMaintenance 29460.444778442
scalar OsgEarthNet.uav[43] utilizationEnergyCharge 89902.907226562
scalar OsgEarthNet.uav[43] utilizationEnergyOverdrawMission 0
scalar OsgEarthNet.uav[43] utilizationEnergyOverdrawMaintenance 0
scalar OsgEarthNet.uav[43] utilizationCountMissions 20
scalar OsgEarthNet.uav[43] utilizationCountManeuversMission 329
scalar OsgEarthNet.uav[43] utilizationCountManeuversMaintenance 40
scalar OsgEarthNet.uav[43] utilizationCountChargeState 20
scalar OsgEarthNet.uav[43] utilizationCountOverdrawnAfterMission 0
scalar OsgEarthNet.uav[43] utilizationCountIdleState 21
scalar OsgEarthNet.uav[43] utilizationFail 0
scalar OsgEarthNet.uav[43] simulationTime 259200
scalar OsgEarthNet.uav[44] utilizationSecMission 17636.177996582
scalar OsgEarthNet.uav[44] utilizationSecMaintenance 11861.809003418
scalar OsgEarthNet.uav[44] utilizationSecCharge 112410
scalar OsgEarthNet.uav[44] utilizationSecIdle 117292.012
scalar OsgEarthNet.uav[44] utilizationEnergyMission 86460.430025515
scalar OsgEarthNet.uav[44] utilizationEnergyMaintenance 56450.630607605
scalar OsgEarthNet.uav[44] utilizationEnergyCharge 141153.15966797
scalar OsgEarthNet.uav[44] utilizationEnergyOverdrawMission 0
scalar OsgEarthNet.uav[44] utilizationEnergyOverdrawMaintenance 0
scalar OsgEarthNet.uav[44] utilizationCountMissions 34
scalar OsgEarthNet.uav[44] utilizationCountManeuversMission 614
scalar OsgEarthNet.uav[44] utilizationCountManeuversMaintenance 69
scalar OsgEarthNet.uav[44] utilizationCountChargeState 34
scalar OsgEarthNet.uav[44] utilizationCountOverdrawnAfterMission 0
scalar OsgEarthNet.uav[44] utilizationCountIdleState 35
scalar OsgEarthNet.uav[44] utilizationFail 0
scalar OsgEarthNet.uav[44] simulationTime 259200
scalar OsgEarthNet.uav[45] utilizationSecMission 41498.166487682
scalar OsgEarthNet.uav[45] utilizationSecMaintenance 17081.789964903
scalar OsgEarthNet.uav[45] utilizationSecCharge 195690
scalar OsgEarthNet.uav[45] utilizationSecIdle 4930.0425474148
scalar OsgEarthNet.uav[45] utilizationEnergyMission 199419.94216527
scalar OsgEarthNet.uav[45] utilizationEnergyMaintenance 79576.449474335
scalar OsgEarthNet.uav[45] utilizationEnergyCharge 276348.28320312
scalar OsgEarthNet.uav[45] utilizationEnergyOverdrawMission 0
scalar OsgEarthNet.uav[45] utilizationEnergyOverdrawMaintenance 0
scalar OsgEarthNet.uav[45] utilizationCountMissions 60
scalar OsgEarthNet.uav[45] utilizationCountManeuversMission 1119
scalar OsgEarthNet.uav[45] utilizationCountManeuversMaintenance 121
scalar OsgEarthNet.uav[45] utilizationCountChargeState 60
scalar OsgEarthNet.uav[45] utilizationCountOverdrawnAfterMission 0
scalar OsgEarthNet.uav[45] utilizationCountIdleState 10
scalar OsgEarthNet.uav[45] utilizationFail 0
scalar OsgEarthNet.uav[45] simulationTime 259200
scalar OsgEarthNet.uav[46] utilizationSecMission 12185.001220642
scalar OsgEarthNet.uav[46] utilizationSecMaintenance 7623.9026694616
scalar OsgEarthNet.uav[46] utilizationSecCharge 74250
scalar OsgEarthNet.uav[46] utilizationSecIdle 165141.0951099
scalar OsgEarthNet.uav[46] utilizationEnergyMission 59613.201675415
scalar OsgEarthNet.uav[46] utilizationEnergyMaintenance 36352.877620697
scalar OsgEarthNet.uav[46] utilizationEnergyCharge 95760.070800781
scalar OsgEarthNet.uav[46] utilizationEnergyOverdrawMission 0
scalar OsgEarthNet.uav[46] utilizationEnergyOverdrawMaintenance 0
scalar OsgEarthNet.uav[46] utilizationCountMissions 21
scalar OsgEarthNet.uav[46] utilizationCountManeuversMission 401
scalar OsgEarthNet.uav[46] utilizationCountManeuversMaintenance 42
scalar OsgEarthNet.uav[46] utilizationCountChargeState 21
scalar OsgEarthNet.uav[46] utilizationCountOverdrawnAfterMission 0
scalar OsgEarthNet.uav[46] utilizationCountIdleState 22
scalar OsgEarthNet.uav[46] utilizationFail 0
scalar OsgEarthNet.uav[46] simulationTime 259200
scalar OsgEarthNet.uav[47] utilizationSecMission 18070.800784996
scalar OsgEarthNet.uav[47] utilizationSecMaintenance 12480.037991513
scalar OsgEarthNet.uav[47] utilizationSecCharge 118340
scalar OsgEarthNet.uav[47] utilizationSecIdle 110309.16022349
scalar OsgEarthNet.uav[47] utilizationEnergyMission 91142.416164398
scalar OsgEarthNet.uav[47] utilizationEnergyMaintenance 59777.397415161
scalar OsgEarthNet.uav[47] utilizationEnergyCharge 148013.63037109
scalar OsgEarthNet.uav[47] utilizationEnergyOverdrawMission 0
scalar OsgEarthNet.uav[47] utilizationEnergyOverdrawMaintenance 0
scalar OsgEarthNet.uav[47] utilizationCountMissions 36
scalar OsgEarthNet.uav[47] utilizationCountManeuversMission 665
scalar OsgEarthNet.uav[47] utilizationCountManeuversMaintenance 72
scalar OsgEarthNet.uav[47] utilizationCountChargeState 36
scalar OsgEarthNet.uav[47] utilizationCountOverdrawnAfterMission 0
scalar OsgEarthNet.uav[47] utilizationCountIdleState 37
scalar OsgEarthNet.uav[47] utilizationFail 0
scalar OsgEarthNet.uav[47] simulationTime 259200
scalar OsgEarthNet.uav[48] utilizationSecMission 40248.064847808
scalar OsgEarthNet.uav[48] utilizationSecMaintenance 18872.610663725
scalar OsgEarthNet.uav[48] utilizationSecCharge 196509.86514038
scalar OsgEarthNet.uav[48] utilizationSecIdle 3569.4583480894
scalar OsgEarthNet.uav[48] utilizationEnergyMission 195984.94830322
scalar OsgEarthNet.uav[48] utilizationEnergyMaintenance 87730.237476349
scalar OsgEarthNet.uav[48] utilizationEnergyCharge 281184.92797852
scalar OsgEarthNet.uav[48] utilizationEnergyOverdrawMission 0
scalar OsgEarthNet.uav[48] utilizationEnergyOverdrawMaintenance 0
scalar OsgEarthNet.uav[48] utilizationCountMissions 62
scalar OsgEarthNet.uav[48] utilizationCountManeuversMission 1265
scalar OsgEarthNet.uav[48] utilizationCountManeuversMaintenance 124
scalar OsgEarthNet.uav[48] utilizationCountChargeState 62
scalar OsgEarthNet.uav[48] utilizationCountOverdrawnAfterMission 0
scalar OsgEarthNet.uav[48] utilizationCountIdleState 10
scalar OsgEarthNet.uav[48] utilizationFail 0
scalar OsgEarthNet.uav[48] simulationTime 259200
scalar OsgEarthNet.uav[49] utilizationSecMission 12865.626373223
scalar OsgEarthNet.uav[49] utilizationSecMaintenance 7729.7215576289
scalar OsgEarthNet.uav[49] utilizationSecCharge 76940
scalar OsgEarthNet.uav[49] utilizationSecIdle 161664.65106915
scalar OsgEarthNet.uav[49] utilizationEnergyMission 61890.946807861
scalar OsgEarthNet.uav[49] utilizationEnergyMaintenance 36777.453102112
scalar OsgEarthNet.uav[49] utilizationEnergyCharge 98829.290039062
scalar OsgEarthNet.uav[49] utilizationEnergyOverdrawMission 0
scalar OsgEarthNet.uav[49] utilizationEnergyOverdrawMaintenance 0
scalar OsgEarthNet.uav[49] utilizationCountMissions 22
scalar OsgEarthNet.uav[49] utilizationCountManeuversMission 409
scalar OsgEarthNet.uav[49] utilizationCountManeuversMaintenance 44
scalar OsgEarthNet.uav[49] utilizationCountChargeState 22
scalar OsgEarthNet.uav[49] utilizationCountOverdrawnAfterMission 0
scalar OsgEarthNet.uav[49] utilizationCountIdleState 23
scalar OsgEarthNet.uav[49] utilizationFail 0
scalar OsgEarthNet.uav[49] simulationTime 259200
scalar OsgEarthNet.uav[50] utilizationSecMission 13285.626373223
scalar OsgEarthNet.uav[50] utilizationSecMaintenance 8264.5206064476
scalar OsgEarthNet.uav[50] utilizationSecCharge 81300
scalar OsgEarthNet.uav[50] utilizationSecIdle 156349.85202033
scalar OsgEarthNet.uav[50] utilizationEnergyMission 65097.409343719
scalar OsgEarthNet.uav[50] utilizationEnergyMaintenance 39222.557971954
scalar OsgEarthNet.uav[50] utilizationEnergyCharge 104956.79150391
scalar OsgEarthNet.uav[50] utilizationEnergyOverdrawMission 0
scalar OsgEarthNet.uav[50] utilizationEnergyOverdrawMaintenance 0
scalar OsgEarthNet.uav[50] utilizationCountMissions 23
scalar OsgEarthNet.uav[50] utilizationCountManeuversMission 430
scalar OsgEarthNet.uav[50] utilizationCountManeuversMaintenance 46
scalar OsgEarthNet.uav[50] utilizationCountChargeState 23
scalar OsgEarthNet.uav[50] utilizationCountOverdrawnAfterMission 0
scalar OsgEarthNet.uav[50] utilizationCountIdleState 24
scalar OsgEarthNet.uav[50] utilizationFail 0
scalar OsgEarthNet.uav[50] simulationTime 259200
scalar OsgEarthNet.uav[51] utilizationSecMission 17676.842434613
scalar OsgEarthNet.uav[51] utilizationSecMaintenance 13269.840164048
scalar OsgEarthNet.uav[51] utilizationSecCharge 121670
scalar OsgEarthNet.uav[51] utilizationSecIdle 106583.31640134
scalar OsgEarthNet.uav[51] utilizationEnergyMission 85556.045282086
scalar OsgEarthNet.uav[51] utilizationEnergyMaintenance 62169.369255066
scalar OsgEarthNet.uav[51] utilizationEnergyCharge 145443.15136719
scalar OsgEarthNet.uav[51] utilizationEnergyOverdrawMission 0
scalar OsgEarthNet.uav[51] utilizationEnergyOverdrawMaintenance 0
scalar OsgEarthNet.uav[51] utilizationCountMissions 41
scalar OsgEarthNet.uav[51] utilizationCountManeuversMission 525
scalar OsgEarthNet.uav[51] utilizationCountManeuversMaintenance 83
scalar OsgEarthNet.uav[51] utilizationCountChargeState 41
scalar OsgEarthNet.uav[51] utilizationCountOverdrawnAfterMission 0
scalar OsgEarthNet.uav[51] utilizationCountIdleState 42
scalar OsgEarthNet.uav[51] utilizationFail 0
scalar OsgEarthNet.uav[51] simulationTime 259200
scalar OsgEarthNet.uav[52] utilizationSecMission 40411.666587349
scalar OsgEarthNet.uav[52] utilizationSecMaintenance 18100.165320086
scalar OsgEarthNet.uav[52] utilizationSecCharge 197146.16209256
scalar OsgEarthNet.uav[52] utilizationSecIdle 3542.005
scalar OsgEarthNet.uav[52] utilizationEnergyMission 194718.4806633
scalar OsgEarthNet.uav[52] utilizationEnergyMaintenance 83488.037651062
scalar OsgEarthNet.uav[52] utilizationEnergyCharge 278107.3190918
scalar OsgEarthNet.uav[52] utilizationEnergyOverdrawMission 0
scalar OsgEarthNet.uav[52] utilizationEnergyOverdrawMaintenance 0
scalar OsgEarthNet.uav[52] utilizationCountMissions 61
scalar OsgEarthNet.uav[52] utilizationCountManeuversMission 1214
scalar OsgEarthNet.uav[52] utilizationCountManeuversMaintenance 122
scalar OsgEarthNet.uav[52] utilizationCountChargeState 61
scalar OsgEarthNet.uav[52] utilizationCountOverdrawnAfterMission 0
scalar OsgEarthNet.uav[52] utilizationCountIdleState 9
scalar OsgEarthNet.uav[52] utilizationFail 0
scalar OsgEarthNet.uav[52] simulationTime 259200
scalar OsgEarthNet.uav[53] utilizationSecMission 11163.125762901
scalar OsgEarthNet.uav[53] utilizationSecMaintenance 8309.3032181748
scalar OsgEarthNet.uav[53] utilizationSecCharge 70924.17790139
scalar OsgEarthNet.uav[53] utilizationSecIdle 168803.39211753
scalar OsgEarthNet.uav[53] utilizationEnergyMission 54869.026058197
scalar OsgEarthNet.uav[53] utilizationEnergyMaintenance 39599.629981995
scalar OsgEarthNet.uav[53] utilizationEnergyCharge 91682.074829102
scalar OsgEarthNet.uav[53] utilizationEnergyOverdrawMission 0
scalar OsgEarthNet.uav[53] utilizationEnergyOverdrawMaintenance 0
scalar OsgEarthNet.uav[53] utilizationCountMissions 21
scalar OsgEarthNet.uav[53] utilizationCountManeuversMission 428
scalar OsgEarthNet.uav[53] utilizationCountManeuversMaintenance 42
scalar OsgEarthNet.uav[53] utilizationCountChargeState 21
scalar OsgEarthNet.uav[53] utilizationCountOverdrawnAfterMission 0
scalar OsgEarthNet.uav[53] utilizationCountIdleState 21
scalar OsgEarthNet.uav[53] utilizationFail 0
scalar OsgEarthNet.uav[53] simulationTime 259200
scalar OsgEarthNet.uav[54] utilizationSecMission 19317.110047729
scalar OsgEarthNet.uav[54] utilizationSecMaintenance 13972.192141878
scalar OsgEarthNet.uav[54] utilizationSecCharge 129967.02863241
scalar OsgEarthNet.uav[54] utilizationSecIdle 95943.668177988
scalar OsgEarthNet.uav[54] utilizationEnergyMission 94385.368400574
scalar OsgEarthNet.uav[54] utilizationEnergyMaintenance 66359.261081696
scalar OsgEarthNet.uav[54] utilizationEnergyCharge 160178.26513672
scalar OsgEarthNet.uav[54] utilizationEnergyOverdrawMission 0
scalar OsgEarthNet.uav[54] utilizationEnergyOverdrawMaintenance 0
scalar OsgEarthNet.uav[54] utilizationCountMissions 42
scalar OsgEarthNet.uav[54] utilizationCountManeuversMission 637
scalar OsgEarthNet.uav[54] utilizationCountManeuversMaintenance 84
scalar OsgEarthNet.uav[54] utilizationCountChargeState 42
scalar OsgEarthNet.uav[54] utilizationCountOverdrawnAfterMission 0
scalar OsgEarthNet.uav[54] utilizationCountIdleState 42
scalar OsgEarthNet.uav[54] utilizationFail 0
scalar OsgEarthNet.uav[54] simulationTime 259200
scalar OsgEarthNet.uav[55] utilizationSecMission 41630.171570625
scalar OsgEarthNet.uav[55] utilizationSecMaintenance 17268.809352824
scalar OsgEarthNet.uav[55] utilizationSecCharge 198576.52013538
scalar OsgEarthNet.uav[55] utilizationSecIdle 1724.4979411756
scalar OsgEarthNet.uav[55] utilizationEnergyMission 200264.19115067
scalar OsgEarthNet.uav[55] utilizationEnergyMaintenance 79872.812385559
scalar OsgEarthNet.uav[55] utilizationEnergyCharge 280794.16455078
scalar OsgEarthNet.uav[55] utilizationEnergyOverdrawMission 0
scalar OsgEarthNet.uav[55] utilizationEnergyOverdrawMaintenance 0
scalar OsgEarthNet.uav[55] utilizationCountMissions 61
scalar OsgEarthNet.uav[55] utilizationCountManeuversMission 1254
scalar OsgEarthNet.uav[55] utilizationCountManeuversMaintenance 122
scalar OsgEarthNet.uav[55] utilizationCountChargeState 61
scalar OsgEarthNet.uav[55] utilizationCountOverdrawnAfterMission 0
scalar OsgEarthNet.uav[55] utilizationCountIdleState 9
scalar OsgEarthNet.uav[55] utilizationFail 0
scalar OsgEarthNet.uav[55] simulationTime 259200
scalar OsgEarthNet.uav[56] utilizationSecMission 19035.472785354
scalar OsgEarthNet.uav[56] utilizationSecMaintenance 11018.044666611
scalar OsgEarthNet.uav[56] utilizationSecCharge 109214.48154804
scalar OsgEarthNet.uav[56] utilizationSecIdle 119932
scalar OsgEarthNet.uav[56] utilizationEnergyMission 93060.421466827
scalar OsgEarthNet.uav[56] utilizationEnergyMaintenance 52618.991943359
scalar OsgEarthNet.uav[56] utilizationEnergyCharge 140646.96020508
scalar OsgEarthNet.uav[56] utilizationEnergyOverdrawMission 0
scalar OsgEarthNet.uav[56] utilizationEnergyOverdrawMaintenance 0
scalar OsgEarthNet.uav[56] utilizationCountMissions 32
scalar OsgEarthNet.uav[56] utilizationCountManeuversMission 589
scalar OsgEarthNet.uav[56] utilizationCountManeuversMaintenance 63
scalar OsgEarthNet.uav[56] utilizationCountChargeState 32
scalar OsgEarthNet.uav[56] utilizationCountOverdrawnAfterMission 0
scalar OsgEarthNet.uav[56] utilizationCountIdleState 32
scalar OsgEarthNet.uav[56] utilizationFail 0
scalar OsgEarthNet.uav[56] simulationTime 259200
scalar OsgEarthNet.uav[57] utilizationSecMission 14651.827907316
scalar OsgEarthNet.uav[57] utilizationSecMaintenance 10582.473960677
scalar OsgEarthNet.uav[57] utilizationSecCharge 91548.287240657
scalar OsgEarthNet.uav[57] utilizationSecIdle 142417.40989135
scalar OsgEarthNet.uav[57] utilizationEnergyMission 71834.614154816
scalar OsgEarthNet.uav[57] utilizationEnergyMaintenance 50029.272445679
scalar OsgEarthNet.uav[57] utilizationEnergyCharge 118359.58203125
scalar OsgEarthNet.uav[57] utilizationEnergyOverdrawMission 0
scalar OsgEarthNet.uav[57] utilizationEnergyOverdrawMaintenance 0
scalar OsgEarthNet.uav[57] utilizationCountMissions 27
scalar OsgEarthNet.uav[57] utilizationCountManeuversMission 535
scalar OsgEarthNet.uav[57] utilizationCountManeuversMaintenance 54
scalar OsgEarthNet.uav[57] utilizationCountChargeState 27
scalar OsgEarthNet.uav[57] utilizationCountOverdrawnAfterMission 0
scalar OsgEarthNet.uav[57] utilizationCountIdleState 27
scalar OsgEarthNet.uav[57] utilizationFail 0
scalar OsgEarthNet.uav[57] simulationTime 259200
scalar OsgEarthNet.uav[58] utilizationSecMission 40966.709364286
scalar OsgEarthNet.uav[58] utilizationSecMaintenance 18355.839371683
scalar OsgEarthNet.uav[58] utilizationSecCharge 198060
scalar OsgEarthNet.uav[58] utilizationSecIdle 1817.4502640309
scalar OsgEarthNet.uav[58] utilizationEnergyMission 196350.54070516
scalar OsgEarthNet.uav[58] utilizationEnergyMaintenance 85540.608985901
scalar OsgEarthNet.uav[58] utilizationEnergyCharge 280211.34667969
scalar OsgEarthNet.uav[58] utilizationEnergyOverdrawMission 0
scalar OsgEarthNet.uav[58] utilizationEnergyOverdrawMaintenance 0
scalar OsgEarthNet.uav[58] utilizationCountMissions 61
scalar OsgEarthNet.uav[58] utilizationCountManeuversMission 1277
scalar OsgEarthNet.uav[58] utilizationCountManeuversMaintenance 123
scalar OsgEarthNet.uav[58] utilizationCountChargeState 61
scalar OsgEarthNet.uav[58] utilizationCountOverdrawnAfterMission 0
scalar OsgEarthNet.uav[58] utilizationCountIdleState 10
scalar OsgEarthNet.uav[58] utilizationFail 0
scalar OsgEarthNet.uav[58] simulationTime 259200
scalar OsgEarthNet.uav[59] utilizationSecMission 15045.626373223
scalar OsgEarthNet.uav[59] utilizationSecMaintenance 10141.614835815
scalar OsgEarthNet.uav[59] utilizationSecCharge 93300.752790962
scalar OsgEarthNet.uav[59] utilizationSecIdle 140712.005
scalar OsgEarthNet.uav[59] utilizationEnergyMission 73529.209228516
scalar OsgEarthNet.uav[59] utilizationEnergyMaintenance 48457.066562652
scalar OsgEarthNet.uav[59] utilizationEnergyCharge 121128.70092773
scalar OsgEarthNet.uav[59] utilizationEnergyOverdrawMission 0
scalar OsgEarthNet.uav[59] utilizationEnergyOverdrawMaintenance 0
scalar OsgEarthNet.uav[59] utilizationCountMissions 27
scalar OsgEarthNet.uav[59] utilizationCountManeuversMission 518
scalar OsgEarthNet.uav[59] utilizationCountManeuversMaintenance 54
scalar OsgEarthNet.uav[59] utilizationCountChargeState 27
scalar OsgEarthNet.uav[59] utilizationCountOverdrawnAfterMission 0
scalar OsgEarthNet.uav[59] utilizationCountIdleState 27
scalar OsgEarthNet.uav[59] utilizationFail 0
scalar OsgEarthNet.uav[59] simulationTime 259200
scalar OsgEarthNet.uav[60] utilizationSecMission 18343.085193485
scalar OsgEarthNet.uav[60] utilizationSecMaintenance 12452.587475469
scalar OsgEarthNet.uav[60] utilizationSecCharge 117090
scalar OsgEarthNet.uav[60] utilizationSecIdle 111314.32633105
scalar OsgEarthNet.uav[60] utilizationEnergyMission 90591.692050934
scalar OsgEarthNet.uav[60] utilizationEnergyMaintenance 59053.744196082
scalar OsgEarthNet.uav[60] utilizationEnergyCharge 144297.39111328
scalar OsgEarthNet.uav[60] utilizationEnergyOverdrawMission 0
scalar OsgEarthNet.uav[60] utilizationEnergyOverdrawMaintenance 0
scalar OsgEarthNet.uav[60] utilizationCountMissions 38
scalar OsgEarthNet.uav[60] utilizationCountManeuversMission 572
scalar OsgEarthNet.uav[60] utilizationCountManeuversMaintenance 76
scalar OsgEarthNet.uav[60] utilizationCountChargeState 37
scalar OsgEarthNet.uav[60] utilizationCountOverdrawnAfterMission 0
scalar OsgEarthNet.uav[60] utilizationCountIdleState 38
scalar OsgEarthNet.uav[60] utilizationFail 0
scalar OsgEarthNet.uav[60] simulationTime 259200
scalar OsgEarthNet.uav[61] utilizationSecMission 22469.173783366
scalar OsgEarthNet.uav[61] utilizationSecMaintenance 14857.651322391
scalar OsgEarthNet.uav[61] utilizationSecCharge 142461.17389424
scalar OsgEarthNet.uav[61] utilizationSecIdle 79412
scalar OsgEarthNet.uav[61] utilizationEnergyMission 109283.23747253
scalar OsgEarthNet.uav[61] utilizationEnergyMaintenance 69726.411472321
scalar OsgEarthNet.uav[61] utilizationEnergyCharge 180237.03417969
scalar OsgEarthNet.uav[61] utilizationEnergyOverdrawMission 0
scalar OsgEarthNet.uav[61] utilizationEnergyOverdrawMaintenance 0
scalar OsgEarthNet.uav[61] utilizationCountMissions 43
scalar OsgEarthNet.uav[61] utilizationCountManeuversMission 801
scalar OsgEarthNet.uav[61] utilizationCountManeuversMaintenance 85
scalar OsgEarthNet.uav[61] utilizationCountChargeState 43
scalar OsgEarthNet.uav[61] utilizationCountOverdrawnAfterMission 0
scalar OsgEarthNet.uav[61] utilizationCountIdleState 43
scalar OsgEarthNet.uav[61] utilizationFail 0
scalar OsgEarthNet.uav[61] simulationTime 259200
scalar OsgEarthNet.uav[62] utilizationSecMission 41905.658461718
scalar OsgEarthNet.uav[62] utilizationSecMaintenance 17149.423030532
scalar OsgEarthNet.uav[62] utilizationSecCharge 197542.91450775
scalar OsgEarthNet.uav[62] utilizationSecIdle 2602.003
scalar OsgEarthNet.uav[62] utilizationEnergyMission 202226.55994797
scalar OsgEarthNet.uav[62] utilizationEnergyMaintenance 78512.664730072
scalar OsgEarthNet.uav[62] utilizationEnergyCharge 278749.97851562
scalar OsgEarthNet.uav[62] utilizationEnergyOverdrawMission 0
scalar OsgEarthNet.uav[62] utilizationEnergyOverdrawMaintenance 0
scalar OsgEarthNet.uav[62] utilizationCountMissions 61
scalar OsgEarthNet.uav[62] utilizationCountManeuversMission 1197
scalar OsgEarthNet.uav[62] utilizationCountManeuversMaintenance 122
scalar OsgEarthNet.uav[62] utilizationCountChargeState 61
scalar OsgEarthNet.uav[62] utilizationCountOverdrawnAfterMission 0
scalar OsgEarthNet.uav[62] utilizationCountIdleState 14
scalar OsgEarthNet.uav[62] utilizationFail 0
scalar OsgEarthNet.uav[62] simulationTime 259200
scalar OsgEarthNet.uav[63] utilizationSecMission 15086.360600882
scalar OsgEarthNet.uav[63] utilizationSecMaintenance 8902.4067871787
scalar OsgEarthNet.uav[63] utilizationSecCharge 90600
scalar OsgEarthNet.uav[63] utilizationSecIdle 144611.23161194
scalar OsgEarthNet.uav[63] utilizationEnergyMission 73758.058059692
scalar OsgEarthNet.uav[63] utilizationEnergyMaintenance 42602.764305115
scalar OsgEarthNet.uav[63] utilizationEnergyCharge 116429.69921875
scalar OsgEarthNet.uav[63] utilizationEnergyOverdrawMission 0
scalar OsgEarthNet.uav[63] utilizationEnergyOverdrawMaintenance 0
scalar OsgEarthNet.uav[63] utilizationCountMissions 26
scalar OsgEarthNet.uav[63] utilizationCountManeuversMission 477
scalar OsgEarthNet.uav[63] utilizationCountManeuversMaintenance 52
scalar OsgEarthNet.uav[63] utilizationCountChargeState 26
scalar OsgEarthNet.uav[63] utilizationCountOverdrawnAfterMission 0
scalar OsgEarthNet.uav[63] utilizationCountIdleState 27
scalar OsgEarthNet.uav[63] utilizationFail 0
scalar OsgEarthNet.uav[63] simulationTime 259200
scalar OsgEarthNet.uav[64] utilizationSecMission 20580.553149742
scalar OsgEarthNet.uav[64] utilizationSecMaintenance 14540.127155703
scalar OsgEarthNet.uav[64] utilizationSecCharge 136268.26089936
scalar OsgEarthNet.uav[64] utilizationSecIdle 87811.057795193
scalar OsgEarthNet.uav[64] utilizationEnergyMission 100316.2427597
scalar OsgEarthNet.uav[64] utilizationEnergyMaintenance 69051.868850708
scalar OsgEarthNet.uav[64] utilizationEnergyCharge 170100.48754883
scalar OsgEarthNet.uav[64] utilizationEnergyOverdrawMission 0
scalar OsgEarthNet.uav[64] utilizationEnergyOverdrawMaintenance 0
scalar OsgEarthNet.uav[64] utilizationCountMissions 42
scalar OsgEarthNet.uav[64] utilizationCountManeuversMission 753
scalar OsgEarthNet.uav[64] utilizationCountManeuversMaintenance 84
scalar OsgEarthNet.uav[64] utilizationCountChargeState 42
scalar OsgEarthNet.uav[64] utilizationCountOverdrawnAfterMission 0
scalar OsgEarthNet.uav[64] utilizationCountIdleState 42
scalar OsgEarthNet.uav[64] utilizationFail 0
scalar OsgEarthNet.uav[64] simulationTime 259200
scalar OsgEarthNet.uav[65] utilizationSecMission 41394.428449249
scalar OsgEarthNet.uav[65] utilizationSecMaintenance 17773.568550751
scalar OsgEarthNet.uav[65] utilizationSecCharge 198210
scalar OsgEarthNet.uav[65] utilizationSecIdle 1822.002
[...]
scalar OsgEarthNet.uav[380] utilizationSecIdle 259199.999
scalar OsgEarthNet.uav[380] utilizationEnergyMission 0
scalar OsgEarthNet.uav[380] utilizationEnergyMaintenance 0
scalar OsgEarthNet.uav[380] utilizationEnergyCharge 0
scalar OsgEarthNet.uav[380] utilizationEnergyOverdrawMission 0
scalar OsgEarthNet.uav[380] utilizationEnergyOverdrawMaintenance 0
scalar OsgEarthNet.uav[380] utilizationCountMissions 0
scalar OsgEarthNet.uav[380] utilizationCountManeuversMission 0
scalar OsgEarthNet.uav[380] utilizationCountManeuversMaintenance 0
scalar OsgEarthNet.uav[380] utilizationCountChargeState 0
scalar OsgEarthNet.uav[380] utilizationCountOverdrawnAfterMission 0
scalar OsgEarthNet.uav[380] utilizationCountIdleState 1
scalar OsgEarthNet.uav[380] utilizationFail 0
scalar OsgEarthNet.uav[380] simulationTime 259200
scalar OsgEarthNet.uav[381] utilizationSecMission 0
scalar OsgEarthNet.uav[381] utilizationSecMaintenance 0
scalar OsgEarthNet.uav[381] utilizationSecCharge 0
scalar OsgEarthNet.uav[381] utilizationSecIdle 259199.999
scalar OsgEarthNet.uav[381] utilizationEnergyMission 0
scalar OsgEarthNet.uav[381] utilizationEnergyMaintenance 0
scalar OsgEarthNet.uav[381] utilizationEnergyCharge 0
scalar OsgEarthNet.uav[381] utilizationEnergyOverdrawMission 0
scalar OsgEarthNet.uav[381] utilizationEnergyOverdrawMaintenance 0
scalar OsgEarthNet.uav[381] utilizationCountMissions 0
scalar OsgEarthNet.uav[381] utilizationCountManeuversMission 0
scalar OsgEarthNet.uav[381] utilizationCountManeuversMaintenance 0
scalar OsgEarthNet.uav[381] utilizationCountChargeState 0
scalar OsgEarthNet.uav[381] utilizationCountOverdrawnAfterMission 0
scalar OsgEarthNet.uav[381] utilizationCountIdleState 1
scalar OsgEarthNet.uav[381] utilizationFail 0
scalar OsgEarthNet.uav[381] simulationTime 259200
scalar OsgEarthNet.uav[382] utilizationSecMission 0
scalar OsgEarthNet.uav[382] utilizationSecMaintenance 0
scalar OsgEarthNet.uav[382] utilizationSecCharge 0
scalar OsgEarthNet.uav[382] utilizationSecIdle 259199.999
scalar OsgEarthNet.uav[382] utilizationEnergyMission 0
scalar OsgEarthNet.uav[382] utilizationEnergyMaintenance 0
scalar OsgEarthNet.uav[382] utilizationEnergyCharge 0
scalar OsgEarthNet.uav[382] utilizationEnergyOverdrawMission 0
scalar OsgEarthNet.uav[382] utilizationEnergyOverdrawMaintenance 0
scalar OsgEarthNet.uav[382] utilizationCountMissions 0
scalar OsgEarthNet.uav[382] utilizationCountManeuversMission 0
scalar OsgEarthNet.uav[382] utilizationCountManeuversMaintenance 0
scalar OsgEarthNet.uav[382] utilizationCountChargeState 0
scalar OsgEarthNet.uav[382] utilizationCountOverdrawnAfterMission 0
scalar OsgEarthNet.uav[382] utilizationCountIdleState 1
scalar OsgEarthNet.uav[382] utilizationFail 0
scalar OsgEarthNet.uav[382] simulationTime 259200
scalar OsgEarthNet.uav[383] utilizationSecMission 0
scalar OsgEarthNet.uav[383] utilizationSecMaintenance 0
scalar OsgEarthNet.uav[383] utilizationSecCharge 0
scalar OsgEarthNet.uav[383] utilizationSecIdle 259199.999
scalar OsgEarthNet.uav[383] utilizationEnergyMission 0
scalar OsgEarthNet.uav[383] utilizationEnergyMaintenance 0
scalar OsgEarthNet.uav[383] utilizationEnergyCharge 0
scalar OsgEarthNet.uav[383] utilizationEnergyOverdrawMission 0
scalar OsgEarthNet.uav[383] utilizationEnergyOverdrawMaintenance 0
scalar OsgEarthNet.uav[383] utilizationCountMissions 0
scalar OsgEarthNet.uav[383] utilizationCountManeuversMission 0
scalar OsgEarthNet.uav[383] utilizationCountManeuversMaintenance 0
scalar OsgEarthNet.uav[383] utilizationCountChargeState 0
scalar OsgEarthNet.uav[383] utilizationCountOverdrawnAfterMission 0
scalar OsgEarthNet.uav[383] utilizationCountIdleState 1
scalar OsgEarthNet.uav[383] utilizationFail 0
scalar OsgEarthNet.uav[383] simulationTime 259200
scalar OsgEarthNet.uav[384] utilizationSecMission 0
scalar OsgEarthNet.uav[384] utilizationSecMaintenance 0
scalar OsgEarthNet.uav[384] utilizationSecCharge 0
scalar OsgEarthNet.uav[384] utilizationSecIdle 259199.999
scalar OsgEarthNet.uav[384] utilizationEnergyMission 0
scalar OsgEarthNet.uav[384] utilizationEnergyMaintenance 0
scalar OsgEarthNet.uav[384] utilizationEnergyCharge 0
scalar OsgEarthNet.uav[384] utilizationEnergyOverdrawMission 0
scalar OsgEarthNet.uav[384] utilizationEnergyOverdrawMaintenance 0
scalar OsgEarthNet.uav[384] utilizationCountMissions 0
scalar OsgEarthNet.uav[384] utilizationCountManeuversMission 0
scalar OsgEarthNet.uav[384] utilizationCountManeuversMaintenance 0
scalar OsgEarthNet.uav[384] utilizationCountChargeState 0
scalar OsgEarthNet.uav[384] utilizationCountOverdrawnAfterMission 0
scalar OsgEarthNet.uav[384] utilizationCountIdleState 1
scalar OsgEarthNet.uav[384] utilizationFail 0
scalar OsgEarthNet.uav[384] simulationTime 259200
scalar OsgEarthNet.uav[385] utilizationSecMission 0
scalar OsgEarthNet.uav[385] utilizationSecMaintenance 0
scalar OsgEarthNet.uav[385] utilizationSecCharge 0
scalar OsgEarthNet.uav[385] utilizationSecIdle 259199.999
scalar OsgEarthNet.uav[385] utilizationEnergyMission 0
scalar OsgEarthNet.uav[385] utilizationEnergyMaintenance 0
scalar OsgEarthNet.uav[385] utilizationEnergyCharge 0
scalar OsgEarthNet.uav[385] utilizationEnergyOverdrawMission 0
scalar OsgEarthNet.uav[385] utilizationEnergyOverdrawMaintenance 0
scalar OsgEarthNet.uav[385] utilizationCountMissions 0
scalar OsgEarthNet.uav[385] utilizationCountManeuversMission 0
scalar OsgEarthNet.uav[385] utilizationCountManeuversMaintenance 0
scalar OsgEarthNet.uav[385] utilizationCountChargeState 0
scalar OsgEarthNet.uav[385] utilizationCountOverdrawnAfterMission 0
scalar OsgEarthNet.uav[385] utilizationCountIdleState 1
scalar OsgEarthNet.uav[385] utilizationFail 0
scalar OsgEarthNet.uav[385] simulationTime 259200
scalar OsgEarthNet.uav[386] utilizationSecMission 0
scalar OsgEarthNet.uav[386] utilizationSecMaintenance 0
scalar OsgEarthNet.uav[386] utilizationSecCharge 0
scalar OsgEarthNet.uav[386] utilizationSecIdle 259199.999
scalar OsgEarthNet.uav[386] utilizationEnergyMission 0
scalar OsgEarthNet.uav[386] utilizationEnergyMaintenance 0
scalar OsgEarthNet.uav[386] utilizationEnergyCharge 0
scalar OsgEarthNet.uav[386] utilizationEnergyOverdrawMission 0
scalar OsgEarthNet.uav[386] utilizationEnergyOverdrawMaintenance 0
scalar OsgEarthNet.uav[386] utilizationCountMissions 0
scalar OsgEarthNet.uav[386] utilizationCountManeuversMission 0
scalar OsgEarthNet.uav[386] utilizationCountManeuversMaintenance 0
scalar OsgEarthNet.uav[386] utilizationCountChargeState 0
scalar OsgEarthNet.uav[386] utilizationCountOverdrawnAfterMission 0
scalar OsgEarthNet.uav[386] utilizationCountIdleState 1
scalar OsgEarthNet.uav[386] utilizationFail 0
scalar OsgEarthNet.uav[386] simulationTime 259200
scalar OsgEarthNet.uav[387] utilizationSecMission 0
scalar OsgEarthNet.uav[387] utilizationSecMaintenance 0
scalar OsgEarthNet.uav[387] utilizationSecCharge 0
scalar OsgEarthNet.uav[387] utilizationSecIdle 259199.999
scalar OsgEarthNet.uav[387] utilizationEnergyMission 0
scalar OsgEarthNet.uav[387] utilizationEnergyMaintenance 0
scalar OsgEarthNet.uav[387] utilizationEnergyCharge 0
scalar OsgEarthNet.uav[387] utilizationEnergyOverdrawMission 0
scalar OsgEarthNet.uav[387] utilizationEnergyOverdrawMaintenance 0
scalar OsgEarthNet.uav[387] utilizationCountMissions 0
scalar OsgEarthNet.uav[387] utilizationCountManeuversMission 0
scalar OsgEarthNet.uav[387] utilizationCountManeuversMaintenance 0
scalar OsgEarthNet.uav[387] utilizationCountChargeState 0
scalar OsgEarthNet.uav[387] utilizationCountOverdrawnAfterMission 0
scalar OsgEarthNet.uav[387] utilizationCountIdleState 1
scalar OsgEarthNet.uav[387] utilizationFail 0
scalar OsgEarthNet.uav[387] simulationTime 259200
scalar OsgEarthNet.uav[388] utilizationSecMission 0
scalar OsgEarthNet.uav[388] utilizationSecMaintenance 0
scalar OsgEarthNet.uav[388] utilizationSecCharge 0
scalar OsgEarthNet.uav[388] utilizationSecIdle 259199.999
scalar OsgEarthNet.uav[388] utilizationEnergyMission 0
scalar OsgEarthNet.uav[388] utilizationEnergyMaintenance 0
scalar OsgEarthNet.uav[388] utilizationEnergyCharge 0
scalar OsgEarthNet.uav[388] utilizationEnergyOverdrawMission 0
scalar OsgEarthNet.uav[388] utilizationEnergyOverdrawMaintenance 0
scalar OsgEarthNet.uav[388] utilizationCountMissions 0
scalar OsgEarthNet.uav[388] utilizationCountManeuversMission 0
scalar OsgEarthNet.uav[388] utilizationCountManeuversMaintenance 0
scalar OsgEarthNet.uav[388] utilizationCountChargeState 0
scalar OsgEarthNet.uav[388] utilizationCountOverdrawnAfterMission 0
scalar OsgEarthNet.uav[388] utilizationCountIdleState 1
scalar OsgEarthNet.uav[388] utilizationFail 0
scalar OsgEarthNet.uav[388] simulationTime 259200
scalar OsgEarthNet.uav[389] utilizationSecMission 0
scalar OsgEarthNet.uav[389] utilizationSecMaintenance 0
scalar OsgEarthNet.uav[389] utilizationSecCharge 0
scalar OsgEarthNet.uav[389] utilizationSecIdle 259199.999
scalar OsgEarthNet.uav[389] utilizationEnergyMission 0
scalar OsgEarthNet.uav[389] utilizationEnergyMaintenance 0
scalar OsgEarthNet.uav[389] utilizationEnergyCharge 0
scalar OsgEarthNet.uav[389] utilizationEnergyOverdrawMission 0
scalar OsgEarthNet.uav[389] utilizationEnergyOverdrawMaintenance 0
scalar OsgEarthNet.uav[389] utilizationCountMissions 0
scalar OsgEarthNet.uav[389] utilizationCountManeuversMission 0
scalar OsgEarthNet.uav[389] utilizationCountManeuversMaintenance 0
scalar OsgEarthNet.uav[389] utilizationCountChargeState 0
scalar OsgEarthNet.uav[389] utilizationCountOverdrawnAfterMission 0
scalar OsgEarthNet.uav[389] utilizationCountIdleState 1
scalar OsgEarthNet.uav[389] utilizationFail 0
scalar OsgEarthNet.uav[389] simulationTime 259200
scalar OsgEarthNet.uav[390] utilizationSecMission 0
scalar OsgEarthNet.uav[390] utilizationSecMaintenance 0
scalar OsgEarthNet.uav[390] utilizationSecCharge 0
scalar OsgEarthNet.uav[390] utilizationSecIdle 259199.999
scalar OsgEarthNet.uav[390] utilizationEnergyMission 0
scalar OsgEarthNet.uav[390] utilizationEnergyMaintenance 0
scalar OsgEarthNet.uav[390] utilizationEnergyCharge 0
scalar OsgEarthNet.uav[390] utilizationEnergyOverdrawMission 0
scalar OsgEarthNet.uav[390] utilizationEnergyOverdrawMaintenance 0
scalar OsgEarthNet.uav[390] utilizationCountMissions 0
scalar OsgEarthNet.uav[390] utilizationCountManeuversMission 0
scalar OsgEarthNet.uav[390] utilizationCountManeuversMaintenance 0
scalar OsgEarthNet.uav[390] utilizationCountChargeState 0
scalar OsgEarthNet.uav[390] utilizationCountOverdrawnAfterMission 0
scalar OsgEarthNet.uav[390] utilizationCountIdleState 1
scalar OsgEarthNet.uav[390] utilizationFail 0
scalar OsgEarthNet.uav[390] simulationTime 259200
scalar OsgEarthNet.uav[391] utilizationSecMission 0
scalar OsgEarthNet.uav[391] utilizationSecMaintenance 0
scalar OsgEarthNet.uav[391] utilizationSecCharge 0
scalar OsgEarthNet.uav[391] utilizationSecIdle 259199.999
scalar OsgEarthNet.uav[391] utilizationEnergyMission 0
scalar OsgEarthNet.uav[391] utilizationEnergyMaintenance 0
scalar OsgEarthNet.uav[391] utilizationEnergyCharge 0
scalar OsgEarthNet.uav[391] utilizationEnergyOverdrawMission 0
scalar OsgEarthNet.uav[391] utilizationEnergyOverdrawMaintenance 0
scalar OsgEarthNet.uav[391] utilizationCountMissions 0
scalar OsgEarthNet.uav[391] utilizationCountManeuversMission 0
scalar OsgEarthNet.uav[391] utilizationCountManeuversMaintenance 0
scalar OsgEarthNet.uav[391] utilizationCountChargeState 0
scalar OsgEarthNet.uav[391] utilizationCountOverdrawnAfterMission 0
scalar OsgEarthNet.uav[391] utilizationCountIdleState 1
scalar OsgEarthNet.uav[391] utilizationFail 0
scalar OsgEarthNet.uav[391] simulationTime 259200
scalar OsgEarthNet.uav[392] utilizationSecMission 0
scalar OsgEarthNet.uav[392] utilizationSecMaintenance 0
scalar OsgEarthNet.uav[392] utilizationSecCharge 0
scalar OsgEarthNet.uav[392] utilizationSecIdle 259199.999
scalar OsgEarthNet.uav[392] utilizationEnergyMission 0
scalar OsgEarthNet.uav[392] utilizationEnergyMaintenance 0
scalar OsgEarthNet.uav[392] utilizationEnergyCharge 0
scalar OsgEarthNet.uav[392] utilizationEnergyOverdrawMission 0
scalar OsgEarthNet.uav[392] utilizationEnergyOverdrawMaintenance 0
scalar OsgEarthNet.uav[392] utilizationCountMissions 0
scalar OsgEarthNet.uav[392] utilizationCountManeuversMission 0
scalar OsgEarthNet.uav[392] utilizationCountManeuversMaintenance 0
scalar OsgEarthNet.uav[392] utilizationCountChargeState 0
scalar OsgEarthNet.uav[392] utilizationCountOverdrawnAfterMission 0
scalar OsgEarthNet.uav[392] utilizationCountIdleState 1
scalar OsgEarthNet.uav[392] utilizationFail 0
scalar OsgEarthNet.uav[392] simulationTime 259200
scalar OsgEarthNet.uav[393] utilizationSecMission 0
scalar OsgEarthNet.uav[393] utilizationSecMaintenance 0
scalar OsgEarthNet.uav[393] utilizationSecCharge 0
scalar OsgEarthNet.uav[393] utilizationSecIdle 259199.999
scalar OsgEarthNet.uav[393] utilizationEnergyMission 0
scalar OsgEarthNet.uav[393] utilizationEnergyMaintenance 0
scalar OsgEarthNet.uav[393] utilizationEnergyCharge 0
scalar OsgEarthNet.uav[393] utilizationEnergyOverdrawMission 0
scalar OsgEarthNet.uav[393] utilizationEnergyOverdrawMaintenance 0
scalar OsgEarthNet.uav[393] utilizationCountMissions 0
scalar OsgEarthNet.uav[393] utilizationCountManeuversMission 0
scalar OsgEarthNet.uav[393] utilizationCountManeuversMaintenance 0
scalar OsgEarthNet.uav[393] utilizationCountChargeState 0
scalar OsgEarthNet.uav[393] utilizationCountOverdrawnAfterMission 0
scalar OsgEarthNet.uav[393] utilizationCountIdleState 1
scalar OsgEarthNet.uav[393] utilizationFail 0
scalar OsgEarthNet.uav[393] simulationTime 259200
scalar OsgEarthNet.uav[394] utilizationSecMission 0
scalar OsgEarthNet.uav[394] utilizationSecMaintenance 0
scalar OsgEarthNet.uav[394] utilizationSecCharge 0
scalar OsgEarthNet.uav[394] utilizationSecIdle 259199.999
scalar OsgEarthNet.uav[394] utilizationEnergyMission 0
scalar OsgEarthNet.uav[394] utilizationEnergyMaintenance 0
scalar OsgEarthNet.uav[394] utilizationEnergyCharge 0
scalar OsgEarthNet.uav[394] utilizationEnergyOverdrawMission 0
scalar OsgEarthNet.uav[394] utilizationEnergyOverdrawMaintenance 0
scalar OsgEarthNet.uav[394] utilizationCountMissions 0
scalar OsgEarthNet.uav[394] utilizationCountManeuversMission 0
scalar OsgEarthNet.uav[394] utilizationCountManeuversMaintenance 0
scalar OsgEarthNet.uav[394] utilizationCountChargeState 0
scalar OsgEarthNet.uav[394] utilizationCountOverdrawnAfterMission 0
scalar OsgEarthNet.uav[394] utilizationCountIdleState 1
scalar OsgEarthNet.uav[394] utilizationFail 0
scalar OsgEarthNet.uav[394] simulationTime 259200
scalar OsgEarthNet.uav[395] utilizationSecMission 0
scalar OsgEarthNet.uav[395] utilizationSecMaintenance 0
scalar OsgEarthNet.uav[395] utilizationSecCharge 0
scalar OsgEarthNet.uav[395] utilizationSecIdle 259199.999
scalar OsgEarthNet.uav[395] utilizationEnergyMission 0
scalar OsgEarthNet.uav[395] utilizationEnergyMaintenance 0
scalar OsgEarthNet.uav[395] utilizationEnergyCharge 0
scalar OsgEarthNet.uav[395] utilizationEnergyOverdrawMission 0
scalar OsgEarthNet.uav[395] utilizationEnergyOverdrawMaintenance 0
scalar OsgEarthNet.uav[395] utilizationCountMissions 0
scalar OsgEarthNet.uav[395] utilizationCountManeuversMission 0
scalar OsgEarthNet.uav[395] utilizationCountManeuversMaintenance 0
scalar OsgEarthNet.uav[395] utilizationCountChargeState 0
scalar OsgEarthNet.uav[395] utilizationCountOverdrawnAfterMission 0
scalar OsgEarthNet.uav[395] utilizationCountIdleState 1
scalar OsgEarthNet.uav[395] utilizationFail 0
scalar OsgEarthNet.uav[395] simulationTime 259200
scalar OsgEarthNet.uav[396] utilizationSecMission 0
scalar OsgEarthNet.uav[396] utilizationSecMaintenance 0
scalar OsgEarthNet.uav[396] utilizationSecCharge 0
scalar OsgEarthNet.uav[396] utilizationSecIdle 259199.999
scalar OsgEarthNet.uav[396] utilizationEnergyMission 0
scalar OsgEarthNet.uav[396] utilizationEnergyMaintenance 0
scalar OsgEarthNet.uav[396] utilizationEnergyCharge 0
scalar OsgEarthNet.uav[396] utilizationEnergyOverdrawMission 0
scalar OsgEarthNet.uav[396] utilizationEnergyOverdrawMaintenance 0
scalar OsgEarthNet.uav[396] utilizationCountMissions 0
scalar OsgEarthNet.uav[396] utilizationCountManeuversMission 0
scalar OsgEarthNet.uav[396] utilizationCountManeuversMaintenance 0
scalar OsgEarthNet.uav[396] utilizationCountChargeState 0
scalar OsgEarthNet.uav[396] utilizationCountOverdrawnAfterMission 0
scalar OsgEarthNet.uav[396] utilizationCountIdleState 1
scalar OsgEarthNet.uav[396] utilizationFail 0
scalar OsgEarthNet.uav[396] simulationTime 259200
scalar OsgEarthNet.uav[397] utilizationSecMission 0
scalar OsgEarthNet.uav[397] utilizationSecMaintenance 0
scalar OsgEarthNet.uav[397] utilizationSecCharge 0
scalar OsgEarthNet.uav[397] utilizationSecIdle 259199.999
scalar OsgEarthNet.uav[397] utilizationEnergyMission 0
scalar OsgEarthNet.uav[397] utilizationEnergyMaintenance 0
scalar OsgEarthNet.uav[397] utilizationEnergyCharge 0
scalar OsgEarthNet.uav[397] utilizationEnergyOverdrawMission 0
scalar OsgEarthNet.uav[397] utilizationEnergyOverdrawMaintenance 0
scalar OsgEarthNet.uav[397] utilizationCountMissions 0
scalar OsgEarthNet.uav[397] utilizationCountManeuversMission 0
scalar OsgEarthNet.uav[397] utilizationCountManeuversMaintenance 0
scalar OsgEarthNet.uav[397] utilizationCountChargeState 0
scalar OsgEarthNet.uav[397] utilizationCountOverdrawnAfterMission 0
scalar OsgEarthNet.uav[397] utilizationCountIdleState 1
scalar OsgEarthNet.uav[397] utilizationFail 0
scalar OsgEarthNet.uav[397] simulationTime 259200
scalar OsgEarthNet.uav[398] utilizationSecMission 0
scalar OsgEarthNet.uav[398] utilizationSecMaintenance 0
scalar OsgEarthNet.uav[398] utilizationSecCharge 0
scalar OsgEarthNet.uav[398] utilizationSecIdle 259199.999
scalar OsgEarthNet.uav[398] utilizationEnergyMission 0
scalar OsgEarthNet.uav[398] utilizationEnergyMaintenance 0
scalar OsgEarthNet.uav[398] utilizationEnergyCharge 0
scalar OsgEarthNet.uav[398] utilizationEnergyOverdrawMission 0
scalar OsgEarthNet.uav[398] utilizationEnergyOverdrawMaintenance 0
scalar OsgEarthNet.uav[398] utilizationCountMissions 0
scalar OsgEarthNet.uav[398] utilizationCountManeuversMission 0
scalar OsgEarthNet.uav[398] utilizationCountManeuversMaintenance 0
scalar OsgEarthNet.uav[398] utilizationCountChargeState 0
scalar OsgEarthNet.uav[398] utilizationCountOverdrawnAfterMission 0
scalar OsgEarthNet.uav[398] utilizationCountIdleState 1
scalar OsgEarthNet.uav[398] utilizationFail 0
scalar OsgEarthNet.uav[398] simulationTime 259200
scalar OsgEarthNet.uav[399] utilizationSecMission 0
scalar OsgEarthNet.uav[399] utilizationSecMaintenance 0
scalar OsgEarthNet.uav[399] utilizationSecCharge 0
scalar OsgEarthNet.uav[399] utilizationSecIdle 259199.999
scalar OsgEarthNet.uav[399] utilizationEnergyMission 0
scalar OsgEarthNet.uav[399] utilizationEnergyMaintenance 0
scalar OsgEarthNet.uav[399] utilizationEnergyCharge 0
scalar OsgEarthNet.uav[399] utilizationEnergyOverdrawMission 0
scalar OsgEarthNet.uav[399] utilizationEnergyOverdrawMaintenance 0
scalar OsgEarthNet.uav[399] utilizationCountMissions 0
scalar OsgEarthNet.uav[399] utilizationCountManeuversMission 0
scalar OsgEarthNet.uav[399] utilizationCountManeuversMaintenance 0
scalar OsgEarthNet.uav[399] utilizationCountChargeState 0
scalar OsgEarthNet.uav[399] utilizationCountOverdrawnAfterMission 0
scalar OsgEarthNet.uav[399] utilizationCountIdleState 1
scalar OsgEarthNet.uav[399] utilizationFail 0
scalar OsgEarthNet.uav[399] simulationTime 259200
scalar OsgEarthNet.cs[0] usedPower 3992317.0815231
scalar OsgEarthNet.cs[0] chargedPower 3992317.0815231
scalar OsgEarthNet.cs[0] chargedMobileNodes 877
scalar OsgEarthNet.cs[0] reservations 890
scalar OsgEarthNet.cs[1] usedPower 4139302.2335731
scalar OsgEarthNet.cs[1] chargedPower 4139302.2335731
scalar OsgEarthNet.cs[1] chargedMobileNodes 1034
scalar OsgEarthNet.cs[1] reservations 1048
scalar OsgEarthNet.cs[2] usedPower 8681014.7977599
scalar OsgEarthNet.cs[2] chargedPower 8681014.7977599
scalar OsgEarthNet.cs[2] chargedMobileNodes 305
scalar OsgEarthNet.cs[2] reservations 1897

