version 2
run Szenario_Hotel_Gabelbach-244-20180712-07:43:58-17068
attr configname Szenario_Hotel_Gabelbach
attr datetime 20180712-07:43:58
attr experiment Szenario_Hotel_Gabelbach
attr inifile omnetpp.ini
attr iterationvars "$replM=2, $biWeight=0.35, $replSearchM=1, $numUAVs=200"
attr iterationvarsf replM=2,biWeight=0.35,replSearchM=1,numUAVs=200-
attr measurement "$replM=2, $biWeight=0.35, $replSearchM=1, $numUAVs=200"
attr network OsgEarthNet
attr processid 17068
attr repetition 4
attr replication #4
attr resultdir results
attr runnumber 244
attr seedset 244
itervar biWeight 0.35
itervar numUAVs 200
itervar replM 2
itervar replSearchM 1
param *.osgEarthScene.scene "\"Szenario_Hotel_Gabelbach.earth\""
param *.playgroundLatitude 50.6830269
param *.playgroundLongitude 10.8538055
param *.playgroundWidth 3500m
param *.playgroundHeight 3500m
param *.cs[0].posX 3537m
param *.cs[0].posY 965m
param *.cs[0].posZ 538m
param *.cs[1].posX 312m
param *.cs[1].posY 1262m
param *.cs[1].posZ 539m
param *.cs[2].posX 2185m
param *.cs[2].posY 3026m
param *.cs[2].posZ 777m
param *.cs[3].posX 10m
param *.cs[3].posY 2200m
param *.cs[3].posZ 560m
param *.cs[4].posX 750m
param *.cs[4].posY 200m
param *.cs[4].posZ 540m
param *.cs[5].posX 2450m
param *.cs[5].posY 180m
param *.cs[5].posZ 524m
param *.cs[6].posX 3140m
param *.cs[6].posY 1790m
param *.cs[6].posZ 606m
param *.numCSs 3
param *.uav[*].replacementMethod 2
param *.uav[*].weightedSumWeight 0.35
param *.missionControl.replacementSearchMethod 1
param *.numUAVs 200
param *.numCSs 3
param *.numUAVs 100
param *.*.timeStep 10s
param *.uav[*].commandPreviewCommandCount 20
param *.missionControl.missionFiles "\"missions\\\\Szenario_WB_Hotel_Gabelbach_Mission_Hotel.waypoints,missions\\\\Szenario_WB_Hotel_Gabelbach_Mission_Kickelhahn.waypoints,missions\\\\Szenario_WB_Hotel_Gabelbach_Mission_Ilmenau_Sportplatz.waypoints,missions\\\\Szenario_WB_Hotel_Gabelbach_Mission_Manebach_Mitte.waypoints,missions\\\\Szenario_WB_Hotel_Gabelbach_Mission_Manebach_Sued.waypoints,missions\\\\Szenario_WB_Hotel_Gabelbach_Hover_HoheSchlaufe.waypoints,missions\\\\Szenario_WB_Hotel_Gabelbach_Hover_Kickelhahn.waypoints,missions\\\\Szenario_WB_Hotel_Gabelbach_Hover_Gabelbachskopf.waypoints,missions\\\\Szenario_WB_Hotel_Gabelbach_Hover_Dachskopf.waypoints\""
param *.uav[0].startX 3537m
param *.uav[0].startY 965m
param *.uav[0].startZ 539m
param *.uav[1].startX 312m
param *.uav[1].startY 1262m
param *.uav[1].startZ 540m
param *.uav[2].startX 2185m
param *.uav[2].startY 3026m
param *.uav[2].startZ 778m
param *.uav[3].startX 3537m
param *.uav[3].startY 965m
param *.uav[3].startZ 539m
param *.uav[4].startX 312m
param *.uav[4].startY 1262m
param *.uav[4].startZ 540m
param *.uav[5].startX 2185m
param *.uav[5].startY 3026m
param *.uav[5].startZ 778m
param *.uav[6].startX 3537m
param *.uav[6].startY 965m
param *.uav[6].startZ 539m
param *.uav[7].startX 312m
param *.uav[7].startY 1262m
param *.uav[7].startZ 540m
param *.uav[8].startX 2185m
param *.uav[8].startY 3026m
param *.uav[8].startZ 778m
param *.uav[9].startX 3537m
param *.uav[9].startY 965m
param *.uav[9].startZ 539m
param *.uav[10].startX 3537m
param *.uav[10].startY 965m
param *.uav[10].startZ 539m
param *.uav[11].startX 312m
param *.uav[11].startY 1262m
param *.uav[11].startZ 540m
param *.uav[12].startX 2185m
param *.uav[12].startY 3026m
param *.uav[12].startZ 778m
param *.uav[13].startX 3537m
param *.uav[13].startY 965m
param *.uav[13].startZ 539m
param *.uav[14].startX 312m
param *.uav[14].startY 1262m
param *.uav[14].startZ 540m
param *.uav[15].startX 2185m
param *.uav[15].startY 3026m
param *.uav[15].startZ 778m
param *.uav[16].startX 3537m
param *.uav[16].startY 965m
param *.uav[16].startZ 539m
param *.uav[17].startX 312m
param *.uav[17].startY 1262m
param *.uav[17].startZ 540m
param *.uav[18].startX 2185m
param *.uav[18].startY 3026m
param *.uav[18].startZ 778m
param *.uav[19].startX 3537m
param *.uav[19].startY 965m
param *.uav[19].startZ 539m
param *.uav[20].startX 3537m
param *.uav[20].startY 965m
param *.uav[20].startZ 539m
param *.uav[21].startX 312m
param *.uav[21].startY 1262m
param *.uav[21].startZ 540m
param *.uav[22].startX 2185m
param *.uav[22].startY 3026m
param *.uav[22].startZ 778m
param *.uav[23].startX 3537m
param *.uav[23].startY 965m
param *.uav[23].startZ 539m
param *.uav[24].startX 312m
param *.uav[24].startY 1262m
param *.uav[24].startZ 540m
param *.uav[25].startX 2185m
param *.uav[25].startY 3026m
param *.uav[25].startZ 778m
param *.uav[26].startX 3537m
param *.uav[26].startY 965m
param *.uav[26].startZ 539m
param *.uav[27].startX 312m
param *.uav[27].startY 1262m
param *.uav[27].startZ 540m
param *.uav[28].startX 2185m
param *.uav[28].startY 3026m
param *.uav[28].startZ 778m
param *.uav[29].startX 3537m
param *.uav[29].startY 965m
param *.uav[29].startZ 539m
param *.uav[30].startX 3537m
param *.uav[30].startY 965m
param *.uav[30].startZ 539m
param *.uav[31].startX 312m
param *.uav[31].startY 1262m
param *.uav[31].startZ 540m
param *.uav[32].startX 2185m
param *.uav[32].startY 3026m
param *.uav[32].startZ 778m
param *.uav[33].startX 3537m
param *.uav[33].startY 965m
param *.uav[33].startZ 539m
param *.uav[34].startX 312m
param *.uav[34].startY 1262m
param *.uav[34].startZ 540m
param *.uav[35].startX 2185m
param *.uav[35].startY 3026m
param *.uav[35].startZ 778m
param *.uav[36].startX 3537m
param *.uav[36].startY 965m
param *.uav[36].startZ 539m
param *.uav[37].startX 312m
param *.uav[37].startY 1262m
param *.uav[37].startZ 540m
param *.uav[38].startX 2185m
param *.uav[38].startY 3026m
param *.uav[38].startZ 778m
param *.uav[39].startX 3537m
param *.uav[39].startY 965m
param *.uav[39].startZ 539m
param *.uav[40].startX 3537m
param *.uav[40].startY 965m
param *.uav[40].startZ 539m
param *.uav[41].startX 312m
param *.uav[41].startY 1262m
param *.uav[41].startZ 540m
param *.uav[42].startX 2185m
param *.uav[42].startY 3026m
param *.uav[42].startZ 778m
param *.uav[43].startX 3537m
param *.uav[43].startY 965m
param *.uav[43].startZ 539m
param *.uav[44].startX 312m
param *.uav[44].startY 1262m
param *.uav[44].startZ 540m
param *.uav[45].startX 2185m
param *.uav[45].startY 3026m
param *.uav[45].startZ 778m
param *.uav[46].startX 3537m
param *.uav[46].startY 965m
param *.uav[46].startZ 539m
param *.uav[47].startX 312m
param *.uav[47].startY 1262m
param *.uav[47].startZ 540m
param *.uav[48].startX 2185m
param *.uav[48].startY 3026m
param *.uav[48].startZ 778m
param *.uav[49].startX 3537m
param *.uav[49].startY 965m
param *.uav[49].startZ 539m
param *.uav[50].startX 3537m
param *.uav[50].startY 965m
param *.uav[50].startZ 539m
param *.uav[51].startX 312m
param *.uav[51].startY 1262m
param *.uav[51].startZ 540m
param *.uav[52].startX 2185m
param *.uav[52].startY 3026m
param *.uav[52].startZ 778m
param *.uav[53].startX 3537m
param *.uav[53].startY 965m
param *.uav[53].startZ 539m
param *.uav[54].startX 312m
param *.uav[54].startY 1262m
param *.uav[54].startZ 540m
param *.uav[55].startX 2185m
param *.uav[55].startY 3026m
param *.uav[55].startZ 778m
param *.uav[56].startX 3537m
param *.uav[56].startY 965m
param *.uav[56].startZ 539m
param *.uav[57].startX 312m
param *.uav[57].startY 1262m
param *.uav[57].startZ 540m
param *.uav[58].startX 2185m
param *.uav[58].startY 3026m
param *.uav[58].startZ 778m
param *.uav[59].startX 3537m
param *.uav[59].startY 965m
param *.uav[59].startZ 539m
param *.uav[60].startX 3537m
param *.uav[60].startY 965m
param *.uav[60].startZ 539m
param *.uav[61].startX 312m
param *.uav[61].startY 1262m
param *.uav[61].startZ 540m
param *.uav[62].startX 2185m
param *.uav[62].startY 3026m
param *.uav[62].startZ 778m
param *.uav[63].startX 3537m
param *.uav[63].startY 965m
param *.uav[63].startZ 539m
param *.uav[64].startX 312m
param *.uav[64].startY 1262m
param *.uav[64].startZ 540m
param *.uav[65].startX 2185m
param *.uav[65].startY 3026m
param *.uav[65].startZ 778m
param *.uav[66].startX 3537m
param *.uav[66].startY 965m
param *.uav[66].startZ 539m
param *.uav[67].startX 312m
param *.uav[67].startY 1262m
param *.uav[67].startZ 540m
param *.uav[68].startX 2185m
param *.uav[68].startY 3026m
param *.uav[68].startZ 778m
param *.uav[69].startX 3537m
param *.uav[69].startY 965m
param *.uav[69].startZ 539m
param *.uav[70].startX 3537m
param *.uav[70].startY 965m
param *.uav[70].startZ 539m
param *.uav[71].startX 312m
param *.uav[71].startY 1262m
param *.uav[71].startZ 540m
param *.uav[72].startX 2185m
param *.uav[72].startY 3026m
param *.uav[72].startZ 778m
param *.uav[73].startX 3537m
param *.uav[73].startY 965m
param *.uav[73].startZ 539m
param *.uav[74].startX 312m
param *.uav[74].startY 1262m
param *.uav[74].startZ 540m
param *.uav[75].startX 2185m
param *.uav[75].startY 3026m
param *.uav[75].startZ 778m
param *.uav[76].startX 3537m
param *.uav[76].startY 965m
param *.uav[76].startZ 539m
param *.uav[77].startX 312m
param *.uav[77].startY 1262m
param *.uav[77].startZ 540m
param *.uav[78].startX 2185m
param *.uav[78].startY 3026m
param *.uav[78].startZ 778m
param *.uav[79].startX 3537m
param *.uav[79].startY 965m
param *.uav[79].startZ 539m
param *.uav[80].startX 3537m
param *.uav[80].startY 965m
param *.uav[80].startZ 539m
param *.uav[81].startX 312m
param *.uav[81].startY 1262m
param *.uav[81].startZ 540m
param *.uav[82].startX 2185m
param *.uav[82].startY 3026m
param *.uav[82].startZ 778m
param *.uav[83].startX 3537m
param *.uav[83].startY 965m
param *.uav[83].startZ 539m
param *.uav[84].startX 312m
param *.uav[84].startY 1262m
param *.uav[84].startZ 540m
param *.uav[85].startX 2185m
param *.uav[85].startY 3026m
param *.uav[85].startZ 778m
param *.uav[86].startX 3537m
param *.uav[86].startY 965m
param *.uav[86].startZ 539m
param *.uav[87].startX 312m
param *.uav[87].startY 1262m
param *.uav[87].startZ 540m
param *.uav[88].startX 2185m
param *.uav[88].startY 3026m
param *.uav[88].startZ 778m
param *.uav[89].startX 3537m
param *.uav[89].startY 965m
param *.uav[89].startZ 539m
param *.uav[90].startX 3537m
param *.uav[90].startY 965m
param *.uav[90].startZ 539m
param *.uav[91].startX 312m
param *.uav[91].startY 1262m
param *.uav[91].startZ 540m
param *.uav[92].startX 2185m
param *.uav[92].startY 3026m
param *.uav[92].startZ 778m
param *.uav[93].startX 3537m
param *.uav[93].startY 965m
param *.uav[93].startZ 539m
param *.uav[94].startX 312m
param *.uav[94].startY 1262m
param *.uav[94].startZ 540m
param *.uav[95].startX 2185m
param *.uav[95].startY 3026m
param *.uav[95].startZ 778m
param *.uav[96].startX 3537m
param *.uav[96].startY 965m
param *.uav[96].startZ 539m
param *.uav[97].startX 312m
param *.uav[97].startY 1262m
param *.uav[97].startZ 540m
param *.uav[98].startX 2185m
param *.uav[98].startY 3026m
param *.uav[98].startZ 778m
param *.uav[99].startX 3537m
param *.uav[99].startY 965m
param *.uav[99].startZ 539m
param *.osgEarthScene.scene "\"boston.earth\""
param *.playgroundLatitude 42.3558
param *.playgroundLongitude -71.0677
param *.playgroundWidth 400m
param *.playgroundHeight 200m
param *.channelController.connectionColor "\"#0000FF40\""
param *.channelController.showConnections false
param *.uav[*].modelURL "\"quadrocopter.small.obj.15.scale.0,0,90.rot\""
param *.uav[*].labelColor "\"#FF7C00CC\""
param *.uav[*].label2Color "\"#FF7C00EE\""
param *.uav[*].batteryCapacity 5200mAh
param *.uav[*].batteryRemaining uav[index].batteryCapacity
param *.uav[*].predictionQuantile 0.95
param *.uav[*].replacementMethod 2
param *.uav[*].weightedSumWeight 0.5
param *.cs[*].modelURL "\"chargingstation_v1.osgt.2.scale.0,0,0.rot.0,0,-15e-1.trans\""
param *.cs[*].spotsWaiting 999
param *.cs[*].spotsCharging 999
param *.cs[*].chargeEffectivenessPercentage 100
param *.cs[*].nonLinearPhaseStartPercentage 85
param *.cs[*].chargeCurrent 6.0A
param *.cs[*].prioritizeFastCharge true
param *.missionControl.replacementSearchMethod 0
param *.*.timeStep 9s

scalar OsgEarthNet.uav[0] utilizationSecMission 760.62515258028
scalar OsgEarthNet.uav[0] utilizationSecMaintenance 202.91610409653
scalar OsgEarthNet.uav[0] utilizationSecCharge 3590
scalar OsgEarthNet.uav[0] utilizationSecIdle 254646.45774332
scalar OsgEarthNet.uav[0] utilizationEnergyMission 3735.5761566162
scalar OsgEarthNet.uav[0] utilizationEnergyMaintenance 934.1601486206
scalar OsgEarthNet.uav[0] utilizationEnergyCharge 4696.8305664062
scalar OsgEarthNet.uav[0] utilizationEnergyOverdrawMission 0
scalar OsgEarthNet.uav[0] utilizationEnergyOverdrawMaintenance 0
scalar OsgEarthNet.uav[0] utilizationCountMissions 1
scalar OsgEarthNet.uav[0] utilizationCountManeuversMission 12
scalar OsgEarthNet.uav[0] utilizationCountManeuversMaintenance 2
scalar OsgEarthNet.uav[0] utilizationCountChargeState 1
scalar OsgEarthNet.uav[0] utilizationCountOverdrawnAfterMission 0
scalar OsgEarthNet.uav[0] utilizationCountIdleState 2
scalar OsgEarthNet.uav[0] utilizationFail 0
scalar OsgEarthNet.uav[0] simulationTime 259200
scalar OsgEarthNet.uav[1] utilizationSecMission 36196.156393061
scalar OsgEarthNet.uav[1] utilizationSecMaintenance 16623.080215756
scalar OsgEarthNet.uav[1] utilizationSecCharge 183906.4084688
scalar OsgEarthNet.uav[1] utilizationSecIdle 22474.353922387
scalar OsgEarthNet.uav[1] utilizationEnergyMission 177900.01406479
scalar OsgEarthNet.uav[1] utilizationEnergyMaintenance 76221.558807373
scalar OsgEarthNet.uav[1] utilizationEnergyCharge 253394.91308594
scalar OsgEarthNet.uav[1] utilizationEnergyOverdrawMission 0
scalar OsgEarthNet.uav[1] utilizationEnergyOverdrawMaintenance 0
scalar OsgEarthNet.uav[1] utilizationCountMissions 55
scalar OsgEarthNet.uav[1] utilizationCountManeuversMission 1150
scalar OsgEarthNet.uav[1] utilizationCountManeuversMaintenance 110
scalar OsgEarthNet.uav[1] utilizationCountChargeState 55
scalar OsgEarthNet.uav[1] utilizationCountOverdrawnAfterMission 0
scalar OsgEarthNet.uav[1] utilizationCountIdleState 17
scalar OsgEarthNet.uav[1] utilizationFail 0
scalar OsgEarthNet.uav[1] simulationTime 259200
scalar OsgEarthNet.uav[2] utilizationSecMission 40395.244938219
scalar OsgEarthNet.uav[2] utilizationSecMaintenance 17613.290749086
scalar OsgEarthNet.uav[2] utilizationSecCharge 197272.0379654
scalar OsgEarthNet.uav[2] utilizationSecIdle 3919.4253472904
scalar OsgEarthNet.uav[2] utilizationEnergyMission 193798.62559509
scalar OsgEarthNet.uav[2] utilizationEnergyMaintenance 80765.187850952
scalar OsgEarthNet.uav[2] utilizationEnergyCharge 271259.84912109
scalar OsgEarthNet.uav[2] utilizationEnergyOverdrawMission 0
scalar OsgEarthNet.uav[2] utilizationEnergyOverdrawMaintenance 0
scalar OsgEarthNet.uav[2] utilizationCountMissions 60
scalar OsgEarthNet.uav[2] utilizationCountManeuversMission 1147
scalar OsgEarthNet.uav[2] utilizationCountManeuversMaintenance 120
scalar OsgEarthNet.uav[2] utilizationCountChargeState 60
scalar OsgEarthNet.uav[2] utilizationCountOverdrawnAfterMission 0
scalar OsgEarthNet.uav[2] utilizationCountIdleState 17
scalar OsgEarthNet.uav[2] utilizationFail 0
scalar OsgEarthNet.uav[2] simulationTime 259200
scalar OsgEarthNet.uav[3] utilizationSecMission 760.62515258028
scalar OsgEarthNet.uav[3] utilizationSecMaintenance 202.91610409653
scalar OsgEarthNet.uav[3] utilizationSecCharge 3330
scalar OsgEarthNet.uav[3] utilizationSecIdle 254906.45774332
scalar OsgEarthNet.uav[3] utilizationEnergyMission 3285.8882598877
scalar OsgEarthNet.uav[3] utilizationEnergyMaintenance 923.32643890381
scalar OsgEarthNet.uav[3] utilizationEnergyCharge 4226.3740234375
scalar OsgEarthNet.uav[3] utilizationEnergyOverdrawMission 0
scalar OsgEarthNet.uav[3] utilizationEnergyOverdrawMaintenance 0
scalar OsgEarthNet.uav[3] utilizationCountMissions 1
scalar OsgEarthNet.uav[3] utilizationCountManeuversMission 12
scalar OsgEarthNet.uav[3] utilizationCountManeuversMaintenance 2
scalar OsgEarthNet.uav[3] utilizationCountChargeState 1
scalar OsgEarthNet.uav[3] utilizationCountOverdrawnAfterMission 0
scalar OsgEarthNet.uav[3] utilizationCountIdleState 2
scalar OsgEarthNet.uav[3] utilizationFail 0
scalar OsgEarthNet.uav[3] simulationTime 259200
scalar OsgEarthNet.uav[4] utilizationSecMission 15027.150883121
scalar OsgEarthNet.uav[4] utilizationSecMaintenance 10293.040950271
scalar OsgEarthNet.uav[4] utilizationSecCharge 97138.843180935
scalar OsgEarthNet.uav[4] utilizationSecIdle 136740.96398567
scalar OsgEarthNet.uav[4] utilizationEnergyMission 75195.594787598
scalar OsgEarthNet.uav[4] utilizationEnergyMaintenance 48980.340179443
scalar OsgEarthNet.uav[4] utilizationEnergyCharge 120637.78149414
scalar OsgEarthNet.uav[4] utilizationEnergyOverdrawMission 0
scalar OsgEarthNet.uav[4] utilizationEnergyOverdrawMaintenance 0
scalar OsgEarthNet.uav[4] utilizationCountMissions 31
scalar OsgEarthNet.uav[4] utilizationCountManeuversMission 483
scalar OsgEarthNet.uav[4] utilizationCountManeuversMaintenance 62
scalar OsgEarthNet.uav[4] utilizationCountChargeState 31
scalar OsgEarthNet.uav[4] utilizationCountOverdrawnAfterMission 0
scalar OsgEarthNet.uav[4] utilizationCountIdleState 31
scalar OsgEarthNet.uav[4] utilizationFail 0
scalar OsgEarthNet.uav[4] simulationTime 259200
scalar OsgEarthNet.uav[5] utilizationSecMission 41246.805369261
scalar OsgEarthNet.uav[5] utilizationSecMaintenance 16151.669242439
scalar OsgEarthNet.uav[5] utilizationSecCharge 197149.5233883
scalar OsgEarthNet.uav[5] utilizationSecIdle 4652.001
scalar OsgEarthNet.uav[5] utilizationEnergyMission 199453.77302551
scalar OsgEarthNet.uav[5] utilizationEnergyMaintenance 73964.844345093
scalar OsgEarthNet.uav[5] utilizationEnergyCharge 269391.51538086
scalar OsgEarthNet.uav[5] utilizationEnergyOverdrawMission 0
scalar OsgEarthNet.uav[5] utilizationEnergyOverdrawMaintenance 0
scalar OsgEarthNet.uav[5] utilizationCountMissions 59
scalar OsgEarthNet.uav[5] utilizationCountManeuversMission 1195
scalar OsgEarthNet.uav[5] utilizationCountManeuversMaintenance 118
scalar OsgEarthNet.uav[5] utilizationCountChargeState 59
scalar OsgEarthNet.uav[5] utilizationCountOverdrawnAfterMission 0
scalar OsgEarthNet.uav[5] utilizationCountIdleState 20
scalar OsgEarthNet.uav[5] utilizationFail 0
scalar OsgEarthNet.uav[5] simulationTime 259200
scalar OsgEarthNet.uav[6] utilizationSecMission 460
scalar OsgEarthNet.uav[6] utilizationSecMaintenance 447.1303002674
scalar OsgEarthNet.uav[6] utilizationSecCharge 3500
scalar OsgEarthNet.uav[6] utilizationSecIdle 254792.86869973
scalar OsgEarthNet.uav[6] utilizationEnergyMission 2150.7286911011
scalar OsgEarthNet.uav[6] utilizationEnergyMaintenance 2071.9254264831
scalar OsgEarthNet.uav[6] utilizationEnergyCharge 4507.1904296875
scalar OsgEarthNet.uav[6] utilizationEnergyOverdrawMission 0
scalar OsgEarthNet.uav[6] utilizationEnergyOverdrawMaintenance 0
scalar OsgEarthNet.uav[6] utilizationCountMissions 1
scalar OsgEarthNet.uav[6] utilizationCountManeuversMission 23
scalar OsgEarthNet.uav[6] utilizationCountManeuversMaintenance 2
scalar OsgEarthNet.uav[6] utilizationCountChargeState 1
scalar OsgEarthNet.uav[6] utilizationCountOverdrawnAfterMission 0
scalar OsgEarthNet.uav[6] utilizationCountIdleState 2
scalar OsgEarthNet.uav[6] utilizationFail 0
scalar OsgEarthNet.uav[6] simulationTime 259200
scalar OsgEarthNet.uav[7] utilizationSecMission 12898.30738861
scalar OsgEarthNet.uav[7] utilizationSecMaintenance 9426.8759484915
scalar OsgEarthNet.uav[7] utilizationSecCharge 87717.499581068
scalar OsgEarthNet.uav[7] utilizationSecIdle 149157.31608183
scalar OsgEarthNet.uav[7] utilizationEnergyMission 61744.177078247
scalar OsgEarthNet.uav[7] utilizationEnergyMaintenance 44497.540645599
scalar OsgEarthNet.uav[7] utilizationEnergyCharge 107584.37158203
scalar OsgEarthNet.uav[7] utilizationEnergyOverdrawMission 0
scalar OsgEarthNet.uav[7] utilizationEnergyOverdrawMaintenance 0
scalar OsgEarthNet.uav[7] utilizationCountMissions 28
scalar OsgEarthNet.uav[7] utilizationCountManeuversMission 443
scalar OsgEarthNet.uav[7] utilizationCountManeuversMaintenance 56
scalar OsgEarthNet.uav[7] utilizationCountChargeState 28
scalar OsgEarthNet.uav[7] utilizationCountOverdrawnAfterMission 0
scalar OsgEarthNet.uav[7] utilizationCountIdleState 28
scalar OsgEarthNet.uav[7] utilizationFail 0
scalar OsgEarthNet.uav[7] simulationTime 259200
scalar OsgEarthNet.uav[8] utilizationSecMission 38748.731095269
scalar OsgEarthNet.uav[8] utilizationSecMaintenance 18304.083867002
scalar OsgEarthNet.uav[8] utilizationSecCharge 198635.18203773
scalar OsgEarthNet.uav[8] utilizationSecIdle 3512.002
scalar OsgEarthNet.uav[8] utilizationEnergyMission 188934.87859344
scalar OsgEarthNet.uav[8] utilizationEnergyMaintenance 83601.775081635
scalar OsgEarthNet.uav[8] utilizationEnergyCharge 274744.68457031
scalar OsgEarthNet.uav[8] utilizationEnergyOverdrawMission 0
scalar OsgEarthNet.uav[8] utilizationEnergyOverdrawMaintenance 0
scalar OsgEarthNet.uav[8] utilizationCountMissions 60
scalar OsgEarthNet.uav[8] utilizationCountManeuversMission 1311
scalar OsgEarthNet.uav[8] utilizationCountManeuversMaintenance 120
scalar OsgEarthNet.uav[8] utilizationCountChargeState 60
scalar OsgEarthNet.uav[8] utilizationCountOverdrawnAfterMission 0
scalar OsgEarthNet.uav[8] utilizationCountIdleState 15
scalar OsgEarthNet.uav[8] utilizationFail 0
scalar OsgEarthNet.uav[8] simulationTime 259200
scalar OsgEarthNet.uav[9] utilizationSecMission 420
scalar OsgEarthNet.uav[9] utilizationSecMaintenance 447.1303002674
scalar OsgEarthNet.uav[9] utilizationSecCharge 3520
scalar OsgEarthNet.uav[9] utilizationSecIdle 254812.86869973
scalar OsgEarthNet.uav[9] utilizationEnergyMission 2433.513092041
scalar OsgEarthNet.uav[9] utilizationEnergyMaintenance 2187.2675285339
scalar OsgEarthNet.uav[9] utilizationEnergyCharge 4553.955078125
scalar OsgEarthNet.uav[9] utilizationEnergyOverdrawMission 0
scalar OsgEarthNet.uav[9] utilizationEnergyOverdrawMaintenance 0
scalar OsgEarthNet.uav[9] utilizationCountMissions 1
scalar OsgEarthNet.uav[9] utilizationCountManeuversMission 21
scalar OsgEarthNet.uav[9] utilizationCountManeuversMaintenance 2
scalar OsgEarthNet.uav[9] utilizationCountChargeState 1
scalar OsgEarthNet.uav[9] utilizationCountOverdrawnAfterMission 0
scalar OsgEarthNet.uav[9] utilizationCountIdleState 2
scalar OsgEarthNet.uav[9] utilizationFail 0
scalar OsgEarthNet.uav[9] simulationTime 259200
scalar OsgEarthNet.uav[10] utilizationSecMission 650.36711382974
scalar OsgEarthNet.uav[10] utilizationSecMaintenance 225.9968455197
scalar OsgEarthNet.uav[10] utilizationSecCharge 3410
scalar OsgEarthNet.uav[10] utilizationSecIdle 254913.63504065
scalar OsgEarthNet.uav[10] utilizationEnergyMission 3180.0692214966
scalar OsgEarthNet.uav[10] utilizationEnergyMaintenance 1141.2811393738
scalar OsgEarthNet.uav[10] utilizationEnergyCharge 4321.349609375
scalar OsgEarthNet.uav[10] utilizationEnergyOverdrawMission 0
scalar OsgEarthNet.uav[10] utilizationEnergyOverdrawMaintenance 0
scalar OsgEarthNet.uav[10] utilizationCountMissions 1
scalar OsgEarthNet.uav[10] utilizationCountManeuversMission 11
scalar OsgEarthNet.uav[10] utilizationCountManeuversMaintenance 2
scalar OsgEarthNet.uav[10] utilizationCountChargeState 1
scalar OsgEarthNet.uav[10] utilizationCountOverdrawnAfterMission 0
scalar OsgEarthNet.uav[10] utilizationCountIdleState 2
scalar OsgEarthNet.uav[10] utilizationFail 0
scalar OsgEarthNet.uav[10] simulationTime 259200
scalar OsgEarthNet.uav[11] utilizationSecMission 12094.243887009
scalar OsgEarthNet.uav[11] utilizationSecMaintenance 7897.0212968456
scalar OsgEarthNet.uav[11] utilizationSecCharge 76380
scalar OsgEarthNet.uav[11] utilizationSecIdle 162828.73381615
scalar OsgEarthNet.uav[11] utilizationEnergyMission 58953.849246979
scalar OsgEarthNet.uav[11] utilizationEnergyMaintenance 37029.402484894
scalar OsgEarthNet.uav[11] utilizationEnergyCharge 95869.072021484
scalar OsgEarthNet.uav[11] utilizationEnergyOverdrawMission 0
scalar OsgEarthNet.uav[11] utilizationEnergyOverdrawMaintenance 0
scalar OsgEarthNet.uav[11] utilizationCountMissions 23
scalar OsgEarthNet.uav[11] utilizationCountManeuversMission 419
scalar OsgEarthNet.uav[11] utilizationCountManeuversMaintenance 46
scalar OsgEarthNet.uav[11] utilizationCountChargeState 23
scalar OsgEarthNet.uav[11] utilizationCountOverdrawnAfterMission 0
scalar OsgEarthNet.uav[11] utilizationCountIdleState 24
scalar OsgEarthNet.uav[11] utilizationFail 0
scalar OsgEarthNet.uav[11] simulationTime 259200
scalar OsgEarthNet.uav[12] utilizationSecMission 39953.352195936
scalar OsgEarthNet.uav[12] utilizationSecMaintenance 16861.199124643
scalar OsgEarthNet.uav[12] utilizationSecCharge 195273.44067942
scalar OsgEarthNet.uav[12] utilizationSecIdle 7112.007
scalar OsgEarthNet.uav[12] utilizationEnergyMission 194465.10126114
scalar OsgEarthNet.uav[12] utilizationEnergyMaintenance 78458.473361969
scalar OsgEarthNet.uav[12] utilizationEnergyCharge 269593.34655762
scalar OsgEarthNet.uav[12] utilizationEnergyOverdrawMission 0
scalar OsgEarthNet.uav[12] utilizationEnergyOverdrawMaintenance 0
scalar OsgEarthNet.uav[12] utilizationCountMissions 59
scalar OsgEarthNet.uav[12] utilizationCountManeuversMission 1217
scalar OsgEarthNet.uav[12] utilizationCountManeuversMaintenance 118
scalar OsgEarthNet.uav[12] utilizationCountChargeState 59
scalar OsgEarthNet.uav[12] utilizationCountOverdrawnAfterMission 0
scalar OsgEarthNet.uav[12] utilizationCountIdleState 21
scalar OsgEarthNet.uav[12] utilizationFail 0
scalar OsgEarthNet.uav[12] simulationTime 259200
scalar OsgEarthNet.uav[13] utilizationSecMission 440
scalar OsgEarthNet.uav[13] utilizationSecMaintenance 447.1303002674
scalar OsgEarthNet.uav[13] utilizationSecCharge 3520
scalar OsgEarthNet.uav[13] utilizationSecIdle 254792.86869973
scalar OsgEarthNet.uav[13] utilizationEnergyMission 2638.9449462891
scalar OsgEarthNet.uav[13] utilizationEnergyMaintenance 2280.424571991
scalar OsgEarthNet.uav[13] utilizationEnergyCharge 4553.9838867188
scalar OsgEarthNet.uav[13] utilizationEnergyOverdrawMission 0
scalar OsgEarthNet.uav[13] utilizationEnergyOverdrawMaintenance 0
scalar OsgEarthNet.uav[13] utilizationCountMissions 1
scalar OsgEarthNet.uav[13] utilizationCountManeuversMission 22
scalar OsgEarthNet.uav[13] utilizationCountManeuversMaintenance 2
scalar OsgEarthNet.uav[13] utilizationCountChargeState 1
scalar OsgEarthNet.uav[13] utilizationCountOverdrawnAfterMission 0
scalar OsgEarthNet.uav[13] utilizationCountIdleState 2
scalar OsgEarthNet.uav[13] utilizationFail 0
scalar OsgEarthNet.uav[13] simulationTime 259200
scalar OsgEarthNet.uav[14] utilizationSecMission 12471.296055505
scalar OsgEarthNet.uav[14] utilizationSecMaintenance 8399.2753335504
scalar OsgEarthNet.uav[14] utilizationSecCharge 78647.423610944
scalar OsgEarthNet.uav[14] utilizationSecIdle 159682.004
scalar OsgEarthNet.uav[14] utilizationEnergyMission 59738.934463501
scalar OsgEarthNet.uav[14] utilizationEnergyMaintenance 39642.193359375
scalar OsgEarthNet.uav[14] utilizationEnergyCharge 99915.989501953
scalar OsgEarthNet.uav[14] utilizationEnergyOverdrawMission 0
scalar OsgEarthNet.uav[14] utilizationEnergyOverdrawMaintenance 0
scalar OsgEarthNet.uav[14] utilizationCountMissions 24
scalar OsgEarthNet.uav[14] utilizationCountManeuversMission 460
scalar OsgEarthNet.uav[14] utilizationCountManeuversMaintenance 48
scalar OsgEarthNet.uav[14] utilizationCountChargeState 24
scalar OsgEarthNet.uav[14] utilizationCountOverdrawnAfterMission 0
scalar OsgEarthNet.uav[14] utilizationCountIdleState 24
scalar OsgEarthNet.uav[14] utilizationFail 0
scalar OsgEarthNet.uav[14] simulationTime 259200
scalar OsgEarthNet.uav[15] utilizationSecMission 40469.946440495
scalar OsgEarthNet.uav[15] utilizationSecMaintenance 17482.153311876
scalar OsgEarthNet.uav[15] utilizationSecCharge 197408.67963371
scalar OsgEarthNet.uav[15] utilizationSecIdle 3839.2196139157
scalar OsgEarthNet.uav[15] utilizationEnergyMission 197634.16927338
scalar OsgEarthNet.uav[15] utilizationEnergyMaintenance 79558.351303101
scalar OsgEarthNet.uav[15] utilizationEnergyCharge 272459.89941406
scalar OsgEarthNet.uav[15] utilizationEnergyOverdrawMission 0
scalar OsgEarthNet.uav[15] utilizationEnergyOverdrawMaintenance 0
scalar OsgEarthNet.uav[15] utilizationCountMissions 60
scalar OsgEarthNet.uav[15] utilizationCountManeuversMission 1253
scalar OsgEarthNet.uav[15] utilizationCountManeuversMaintenance 120
scalar OsgEarthNet.uav[15] utilizationCountChargeState 60
scalar OsgEarthNet.uav[15] utilizationCountOverdrawnAfterMission 0
scalar OsgEarthNet.uav[15] utilizationCountIdleState 21
scalar OsgEarthNet.uav[15] utilizationFail 0
scalar OsgEarthNet.uav[15] simulationTime 259200
scalar OsgEarthNet.uav[16] utilizationSecMission 15671.912540396
scalar OsgEarthNet.uav[16] utilizationSecMaintenance 9263.2795894519
scalar OsgEarthNet.uav[16] utilizationSecCharge 91910
scalar OsgEarthNet.uav[16] utilizationSecIdle 142354.80687015
scalar OsgEarthNet.uav[16] utilizationEnergyMission 75102.587917328
scalar OsgEarthNet.uav[16] utilizationEnergyMaintenance 43578.543418884
scalar OsgEarthNet.uav[16] utilizationEnergyCharge 118858.88916016
scalar OsgEarthNet.uav[16] utilizationEnergyOverdrawMission 0
scalar OsgEarthNet.uav[16] utilizationEnergyOverdrawMaintenance 0
scalar OsgEarthNet.uav[16] utilizationCountMissions 26
scalar OsgEarthNet.uav[16] utilizationCountManeuversMission 483
scalar OsgEarthNet.uav[16] utilizationCountManeuversMaintenance 51
scalar OsgEarthNet.uav[16] utilizationCountChargeState 26
scalar OsgEarthNet.uav[16] utilizationCountOverdrawnAfterMission 0
scalar OsgEarthNet.uav[16] utilizationCountIdleState 27
scalar OsgEarthNet.uav[16] utilizationFail 0
scalar OsgEarthNet.uav[16] simulationTime 259200
scalar OsgEarthNet.uav[17] utilizationSecMission 12214.657486734
scalar OsgEarthNet.uav[17] utilizationSecMaintenance 8801.6339102042
scalar OsgEarthNet.uav[17] utilizationSecCharge 83040
scalar OsgEarthNet.uav[17] utilizationSecIdle 155143.70760306
scalar OsgEarthNet.uav[17] utilizationEnergyMission 59647.988342285
scalar OsgEarthNet.uav[17] utilizationEnergyMaintenance 41674.373752594
scalar OsgEarthNet.uav[17] utilizationEnergyCharge 100889.12890625
scalar OsgEarthNet.uav[17] utilizationEnergyOverdrawMission 0
scalar OsgEarthNet.uav[17] utilizationEnergyOverdrawMaintenance 0
scalar OsgEarthNet.uav[17] utilizationCountMissions 27
scalar OsgEarthNet.uav[17] utilizationCountManeuversMission 379
scalar OsgEarthNet.uav[17] utilizationCountManeuversMaintenance 54
scalar OsgEarthNet.uav[17] utilizationCountChargeState 27
scalar OsgEarthNet.uav[17] utilizationCountOverdrawnAfterMission 0
scalar OsgEarthNet.uav[17] utilizationCountIdleState 28
scalar OsgEarthNet.uav[17] utilizationFail 0
scalar OsgEarthNet.uav[17] simulationTime 259200
scalar OsgEarthNet.uav[18] utilizationSecMission 41330.815317924
scalar OsgEarthNet.uav[18] utilizationSecMaintenance 15513.154243942
scalar OsgEarthNet.uav[18] utilizationSecCharge 196210.57378473
scalar OsgEarthNet.uav[18] utilizationSecIdle 6145.4556534032
scalar OsgEarthNet.uav[18] utilizationEnergyMission 196253.54745483
scalar OsgEarthNet.uav[18] utilizationEnergyMaintenance 70500.118595123
scalar OsgEarthNet.uav[18] utilizationEnergyCharge 268015.37744141
scalar OsgEarthNet.uav[18] utilizationEnergyOverdrawMission 0
scalar OsgEarthNet.uav[18] utilizationEnergyOverdrawMaintenance 0
scalar OsgEarthNet.uav[18] utilizationCountMissions 58
scalar OsgEarthNet.uav[18] utilizationCountManeuversMission 1092
scalar OsgEarthNet.uav[18] utilizationCountManeuversMaintenance 116
scalar OsgEarthNet.uav[18] utilizationCountChargeState 58
scalar OsgEarthNet.uav[18] utilizationCountOverdrawnAfterMission 0
scalar OsgEarthNet.uav[18] utilizationCountIdleState 24
scalar OsgEarthNet.uav[18] utilizationFail 0
scalar OsgEarthNet.uav[18] simulationTime 259200
scalar OsgEarthNet.uav[19] utilizationSecMission 9024.376068062
scalar OsgEarthNet.uav[19] utilizationSecMaintenance 5116.2218236502
scalar OsgEarthNet.uav[19] utilizationSecCharge 52350
scalar OsgEarthNet.uav[19] utilizationSecIdle 192709.40110829
scalar OsgEarthNet.uav[19] utilizationEnergyMission 44130.969581604
scalar OsgEarthNet.uav[19] utilizationEnergyMaintenance 24471.925354004
scalar OsgEarthNet.uav[19] utilizationEnergyCharge 67257.688476562
scalar OsgEarthNet.uav[19] utilizationEnergyOverdrawMission 0
scalar OsgEarthNet.uav[19] utilizationEnergyOverdrawMaintenance 0
scalar OsgEarthNet.uav[19] utilizationCountMissions 15
scalar OsgEarthNet.uav[19] utilizationCountManeuversMission 269
scalar OsgEarthNet.uav[19] utilizationCountManeuversMaintenance 30
scalar OsgEarthNet.uav[19] utilizationCountChargeState 15
scalar OsgEarthNet.uav[19] utilizationCountOverdrawnAfterMission 0
scalar OsgEarthNet.uav[19] utilizationCountIdleState 16
scalar OsgEarthNet.uav[19] utilizationFail 0
scalar OsgEarthNet.uav[19] simulationTime 259200
scalar OsgEarthNet.uav[20] utilizationSecMission 11578.42924947
scalar OsgEarthNet.uav[20] utilizationSecMaintenance 7865.2060968818
scalar OsgEarthNet.uav[20] utilizationSecCharge 74690
scalar OsgEarthNet.uav[20] utilizationSecIdle 165066.36365365
scalar OsgEarthNet.uav[20] utilizationEnergyMission 56014.983570099
scalar OsgEarthNet.uav[20] utilizationEnergyMaintenance 37624.716815948
scalar OsgEarthNet.uav[20] utilizationEnergyCharge 93290.638427734
scalar OsgEarthNet.uav[20] utilizationEnergyOverdrawMission 0
scalar OsgEarthNet.uav[20] utilizationEnergyOverdrawMaintenance 0
scalar OsgEarthNet.uav[20] utilizationCountMissions 23
scalar OsgEarthNet.uav[20] utilizationCountManeuversMission 350
scalar OsgEarthNet.uav[20] utilizationCountManeuversMaintenance 46
scalar OsgEarthNet.uav[20] utilizationCountChargeState 23
scalar OsgEarthNet.uav[20] utilizationCountOverdrawnAfterMission 0
scalar OsgEarthNet.uav[20] utilizationCountIdleState 24
scalar OsgEarthNet.uav[20] utilizationFail 0
scalar OsgEarthNet.uav[20] simulationTime 259200
scalar OsgEarthNet.uav[21] utilizationSecMission 13704.698322126
scalar OsgEarthNet.uav[21] utilizationSecMaintenance 9472.8490904022
scalar OsgEarthNet.uav[21] utilizationSecCharge 89030
scalar OsgEarthNet.uav[21] utilizationSecIdle 146992.45158747
scalar OsgEarthNet.uav[21] utilizationEnergyMission 67464.878803253
scalar OsgEarthNet.uav[21] utilizationEnergyMaintenance 44862.803470612
scalar OsgEarthNet.uav[21] utilizationEnergyCharge 111659.22460938
scalar OsgEarthNet.uav[21] utilizationEnergyOverdrawMission 0
scalar OsgEarthNet.uav[21] utilizationEnergyOverdrawMaintenance 0
scalar OsgEarthNet.uav[21] utilizationCountMissions 27
scalar OsgEarthNet.uav[21] utilizationCountManeuversMission 514
scalar OsgEarthNet.uav[21] utilizationCountManeuversMaintenance 54
scalar OsgEarthNet.uav[21] utilizationCountChargeState 27
scalar OsgEarthNet.uav[21] utilizationCountOverdrawnAfterMission 0
scalar OsgEarthNet.uav[21] utilizationCountIdleState 28
scalar OsgEarthNet.uav[21] utilizationFail 0
scalar OsgEarthNet.uav[21] simulationTime 259200
scalar OsgEarthNet.uav[22] utilizationSecMission 40155.309814694
scalar OsgEarthNet.uav[22] utilizationSecMaintenance 17528.879224179
scalar OsgEarthNet.uav[22] utilizationSecCharge 196873.80696113
scalar OsgEarthNet.uav[22] utilizationSecIdle 4642.003
scalar OsgEarthNet.uav[22] utilizationEnergyMission 192843.77790833
scalar OsgEarthNet.uav[22] utilizationEnergyMaintenance 80402.411975861
scalar OsgEarthNet.uav[22] utilizationEnergyCharge 271250.26025391
scalar OsgEarthNet.uav[22] utilizationEnergyOverdrawMission 0
scalar OsgEarthNet.uav[22] utilizationEnergyOverdrawMaintenance 0
scalar OsgEarthNet.uav[22] utilizationCountMissions 59
scalar OsgEarthNet.uav[22] utilizationCountManeuversMission 1132
scalar OsgEarthNet.uav[22] utilizationCountManeuversMaintenance 118
scalar OsgEarthNet.uav[22] utilizationCountChargeState 59
scalar OsgEarthNet.uav[22] utilizationCountOverdrawnAfterMission 0
scalar OsgEarthNet.uav[22] utilizationCountIdleState 17
scalar OsgEarthNet.uav[22] utilizationFail 0
scalar OsgEarthNet.uav[22] simulationTime 259200
scalar OsgEarthNet.uav[23] utilizationSecMission 8654.0089542322
scalar OsgEarthNet.uav[23] utilizationSecMaintenance 5414.7113420323
scalar OsgEarthNet.uav[23] utilizationSecCharge 52960
scalar OsgEarthNet.uav[23] utilizationSecIdle 192171.27870374
scalar OsgEarthNet.uav[23] utilizationEnergyMission 40656.193340302
scalar OsgEarthNet.uav[23] utilizationEnergyMaintenance 25948.544330597
scalar OsgEarthNet.uav[23] utilizationEnergyCharge 68406.075195312
scalar OsgEarthNet.uav[23] utilizationEnergyOverdrawMission 0
scalar OsgEarthNet.uav[23] utilizationEnergyOverdrawMaintenance 0
scalar OsgEarthNet.uav[23] utilizationCountMissions 15
scalar OsgEarthNet.uav[23] utilizationCountManeuversMission 272
scalar OsgEarthNet.uav[23] utilizationCountManeuversMaintenance 30
scalar OsgEarthNet.uav[23] utilizationCountChargeState 15
scalar OsgEarthNet.uav[23] utilizationCountOverdrawnAfterMission 0
scalar OsgEarthNet.uav[23] utilizationCountIdleState 16
scalar OsgEarthNet.uav[23] utilizationFail 0
scalar OsgEarthNet.uav[23] simulationTime 259200
scalar OsgEarthNet.uav[24] utilizationSecMission 12306.712565007
scalar OsgEarthNet.uav[24] utilizationSecMaintenance 8178.9646468801
scalar OsgEarthNet.uav[24] utilizationSecCharge 79270
scalar OsgEarthNet.uav[24] utilizationSecIdle 159444.32178811
scalar OsgEarthNet.uav[24] utilizationEnergyMission 60565.226947784
scalar OsgEarthNet.uav[24] utilizationEnergyMaintenance 38659.601329803
scalar OsgEarthNet.uav[24] utilizationEnergyCharge 99563.287597656
scalar OsgEarthNet.uav[24] utilizationEnergyOverdrawMission 0
scalar OsgEarthNet.uav[24] utilizationEnergyOverdrawMaintenance 0
scalar OsgEarthNet.uav[24] utilizationCountMissions 24
scalar OsgEarthNet.uav[24] utilizationCountManeuversMission 417
scalar OsgEarthNet.uav[24] utilizationCountManeuversMaintenance 48
scalar OsgEarthNet.uav[24] utilizationCountChargeState 24
scalar OsgEarthNet.uav[24] utilizationCountOverdrawnAfterMission 0
scalar OsgEarthNet.uav[24] utilizationCountIdleState 25
scalar OsgEarthNet.uav[24] utilizationFail 0
scalar OsgEarthNet.uav[24] simulationTime 259200
scalar OsgEarthNet.uav[25] utilizationSecMission 40085.06870701
scalar OsgEarthNet.uav[25] utilizationSecMaintenance 17582.298731734
scalar OsgEarthNet.uav[25] utilizationSecCharge 199100.63156126
scalar OsgEarthNet.uav[25] utilizationSecIdle 2432
scalar OsgEarthNet.uav[25] utilizationEnergyMission 194542.83652438
scalar OsgEarthNet.uav[25] utilizationEnergyMaintenance 81123.244934082
scalar OsgEarthNet.uav[25] utilizationEnergyCharge 276086.02148438
scalar OsgEarthNet.uav[25] utilizationEnergyOverdrawMission 0
scalar OsgEarthNet.uav[25] utilizationEnergyOverdrawMaintenance 0
scalar OsgEarthNet.uav[25] utilizationCountMissions 60
scalar OsgEarthNet.uav[25] utilizationCountManeuversMission 1167
scalar OsgEarthNet.uav[25] utilizationCountManeuversMaintenance 119
scalar OsgEarthNet.uav[25] utilizationCountChargeState 60
scalar OsgEarthNet.uav[25] utilizationCountOverdrawnAfterMission 0
scalar OsgEarthNet.uav[25] utilizationCountIdleState 17
scalar OsgEarthNet.uav[25] utilizationFail 0
scalar OsgEarthNet.uav[25] simulationTime 259200
scalar OsgEarthNet.uav[26] utilizationSecMission 8654.4564575799
scalar OsgEarthNet.uav[26] utilizationSecMaintenance 7253.5335424201
scalar OsgEarthNet.uav[26] utilizationSecCharge 59650
scalar OsgEarthNet.uav[26] utilizationSecIdle 183642.009
scalar OsgEarthNet.uav[26] utilizationEnergyMission 43554.798648883
scalar OsgEarthNet.uav[26] utilizationEnergyMaintenance 34922.030101776
scalar OsgEarthNet.uav[26] utilizationEnergyCharge 76954.889160156
scalar OsgEarthNet.uav[26] utilizationEnergyOverdrawMission 0
scalar OsgEarthNet.uav[26] utilizationEnergyOverdrawMaintenance 0
scalar OsgEarthNet.uav[26] utilizationCountMissions 17
scalar OsgEarthNet.uav[26] utilizationCountManeuversMission 373
scalar OsgEarthNet.uav[26] utilizationCountManeuversMaintenance 35
scalar OsgEarthNet.uav[26] utilizationCountChargeState 17
scalar OsgEarthNet.uav[26] utilizationCountOverdrawnAfterMission 0
scalar OsgEarthNet.uav[26] utilizationCountIdleState 18
scalar OsgEarthNet.uav[26] utilizationFail 0
scalar OsgEarthNet.uav[26] simulationTime 259200
scalar OsgEarthNet.uav[27] utilizationSecMission 17631.93366323
scalar OsgEarthNet.uav[27] utilizationSecMaintenance 12842.193085194
scalar OsgEarthNet.uav[27] utilizationSecCharge 119151.26036206
scalar OsgEarthNet.uav[27] utilizationSecIdle 109574.61188952
scalar OsgEarthNet.uav[27] utilizationEnergyMission 84827.398452759
scalar OsgEarthNet.uav[27] utilizationEnergyMaintenance 61195.771781921
scalar OsgEarthNet.uav[27] utilizationEnergyCharge 142534.8293457
scalar OsgEarthNet.uav[27] utilizationEnergyOverdrawMission 0
scalar OsgEarthNet.uav[27] utilizationEnergyOverdrawMaintenance 0
scalar OsgEarthNet.uav[27] utilizationCountMissions 41
scalar OsgEarthNet.uav[27] utilizationCountManeuversMission 472
scalar OsgEarthNet.uav[27] utilizationCountManeuversMaintenance 82
scalar OsgEarthNet.uav[27] utilizationCountChargeState 41
scalar OsgEarthNet.uav[27] utilizationCountOverdrawnAfterMission 0
scalar OsgEarthNet.uav[27] utilizationCountIdleState 41
scalar OsgEarthNet.uav[27] utilizationFail 0
scalar OsgEarthNet.uav[27] simulationTime 259200
scalar OsgEarthNet.uav[28] utilizationSecMission 40569.536820029
scalar OsgEarthNet.uav[28] utilizationSecMaintenance 16835.843407153
scalar OsgEarthNet.uav[28] utilizationSecCharge 198622.61777282
scalar OsgEarthNet.uav[28] utilizationSecIdle 3172.001
scalar OsgEarthNet.uav[28] utilizationEnergyMission 196907.98942566
scalar OsgEarthNet.uav[28] utilizationEnergyMaintenance 75945.364162445
scalar OsgEarthNet.uav[28] utilizationEnergyCharge 271742.046875
scalar OsgEarthNet.uav[28] utilizationEnergyOverdrawMission 0
scalar OsgEarthNet.uav[28] utilizationEnergyOverdrawMaintenance 0
scalar OsgEarthNet.uav[28] utilizationCountMissions 59
scalar OsgEarthNet.uav[28] utilizationCountManeuversMission 1235
scalar OsgEarthNet.uav[28] utilizationCountManeuversMaintenance 118
scalar OsgEarthNet.uav[28] utilizationCountChargeState 59
scalar OsgEarthNet.uav[28] utilizationCountOverdrawnAfterMission 0
scalar OsgEarthNet.uav[28] utilizationCountIdleState 22
scalar OsgEarthNet.uav[28] utilizationFail 0
scalar OsgEarthNet.uav[28] simulationTime 259200
scalar OsgEarthNet.uav[29] utilizationSecMission 14224.376068062
scalar OsgEarthNet.uav[29] utilizationSecMaintenance 10290.041464361
scalar OsgEarthNet.uav[29] utilizationSecCharge 91510
scalar OsgEarthNet.uav[29] utilizationSecIdle 143175.58146758
scalar OsgEarthNet.uav[29] utilizationEnergyMission 70972.023395538
scalar OsgEarthNet.uav[29] utilizationEnergyMaintenance 48629.24584198
scalar OsgEarthNet.uav[29] utilizationEnergyCharge 118055.76074219
scalar OsgEarthNet.uav[29] utilizationEnergyOverdrawMission 0
scalar OsgEarthNet.uav[29] utilizationEnergyOverdrawMaintenance 0
scalar OsgEarthNet.uav[29] utilizationCountMissions 26
scalar OsgEarthNet.uav[29] utilizationCountManeuversMission 529
scalar OsgEarthNet.uav[29] utilizationCountManeuversMaintenance 52
scalar OsgEarthNet.uav[29] utilizationCountChargeState 26
scalar OsgEarthNet.uav[29] utilizationCountOverdrawnAfterMission 0
scalar OsgEarthNet.uav[29] utilizationCountIdleState 27
scalar OsgEarthNet.uav[29] utilizationFail 0
scalar OsgEarthNet.uav[29] simulationTime 259200
scalar OsgEarthNet.uav[30] utilizationSecMission 40074.357491358
scalar OsgEarthNet.uav[30] utilizationSecMaintenance 17633.641508642
scalar OsgEarthNet.uav[30] utilizationSecCharge 199570
scalar OsgEarthNet.uav[30] utilizationSecIdle 1922
scalar OsgEarthNet.uav[30] utilizationEnergyMission 194588.01645451
scalar OsgEarthNet.uav[30] utilizationEnergyMaintenance 81400.238388062
scalar OsgEarthNet.uav[30] utilizationEnergyCharge 275581.77148438
scalar OsgEarthNet.uav[30] utilizationEnergyOverdrawMission 0
scalar OsgEarthNet.uav[30] utilizationEnergyOverdrawMaintenance 0
scalar OsgEarthNet.uav[30] utilizationCountMissions 60
scalar OsgEarthNet.uav[30] utilizationCountManeuversMission 1268
scalar OsgEarthNet.uav[30] utilizationCountManeuversMaintenance 120
scalar OsgEarthNet.uav[30] utilizationCountChargeState 60
scalar OsgEarthNet.uav[30] utilizationCountOverdrawnAfterMission 0
scalar OsgEarthNet.uav[30] utilizationCountIdleState 15
scalar OsgEarthNet.uav[30] utilizationFail 0
scalar OsgEarthNet.uav[30] simulationTime 259200
scalar OsgEarthNet.uav[31] utilizationSecMission 19013.253345991
scalar OsgEarthNet.uav[31] utilizationSecMaintenance 12917.813997021
scalar OsgEarthNet.uav[31] utilizationSecCharge 122836.92265699
scalar OsgEarthNet.uav[31] utilizationSecIdle 104432.009
scalar OsgEarthNet.uav[31] utilizationEnergyMission 91906.898220062
scalar OsgEarthNet.uav[31] utilizationEnergyMaintenance 60712.777973175
scalar OsgEarthNet.uav[31] utilizationEnergyCharge 152483.36010742
scalar OsgEarthNet.uav[31] utilizationEnergyOverdrawMission 0
scalar OsgEarthNet.uav[31] utilizationEnergyOverdrawMaintenance 0
scalar OsgEarthNet.uav[31] utilizationCountMissions 39
scalar OsgEarthNet.uav[31] utilizationCountManeuversMission 615
scalar OsgEarthNet.uav[31] utilizationCountManeuversMaintenance 78
scalar OsgEarthNet.uav[31] utilizationCountChargeState 39
scalar OsgEarthNet.uav[31] utilizationCountOverdrawnAfterMission 0
scalar OsgEarthNet.uav[31] utilizationCountIdleState 39
scalar OsgEarthNet.uav[31] utilizationFail 0
scalar OsgEarthNet.uav[31] simulationTime 259200
scalar OsgEarthNet.uav[32] utilizationSecMission 40483.534077893
scalar OsgEarthNet.uav[32] utilizationSecMaintenance 17149.014658076
scalar OsgEarthNet.uav[32] utilizationSecCharge 198860
scalar OsgEarthNet.uav[32] utilizationSecIdle 2707.4502640309
scalar OsgEarthNet.uav[32] utilizationEnergyMission 194711.85475569
scalar OsgEarthNet.uav[32] utilizationEnergyMaintenance 80019.778549194
scalar OsgEarthNet.uav[32] utilizationEnergyCharge 272517.68554688
scalar OsgEarthNet.uav[32] utilizationEnergyOverdrawMission 0
scalar OsgEarthNet.uav[32] utilizationEnergyOverdrawMaintenance 0
scalar OsgEarthNet.uav[32] utilizationCountMissions 59
scalar OsgEarthNet.uav[32] utilizationCountManeuversMission 1194
scalar OsgEarthNet.uav[32] utilizationCountManeuversMaintenance 119
scalar OsgEarthNet.uav[32] utilizationCountChargeState 59
scalar OsgEarthNet.uav[32] utilizationCountOverdrawnAfterMission 0
scalar OsgEarthNet.uav[32] utilizationCountIdleState 19
scalar OsgEarthNet.uav[32] utilizationFail 0
scalar OsgEarthNet.uav[32] simulationTime 259200
scalar OsgEarthNet.uav[33] utilizationSecMission 12233.383801652
scalar OsgEarthNet.uav[33] utilizationSecMaintenance 9335.777995512
scalar OsgEarthNet.uav[33] utilizationSecCharge 81480
scalar OsgEarthNet.uav[33] utilizationSecIdle 156150.83720284
scalar OsgEarthNet.uav[33] utilizationEnergyMission 61217.262153625
scalar OsgEarthNet.uav[33] utilizationEnergyMaintenance 44642.961811066
scalar OsgEarthNet.uav[33] utilizationEnergyCharge 105538.59716797
scalar OsgEarthNet.uav[33] utilizationEnergyOverdrawMission 0
scalar OsgEarthNet.uav[33] utilizationEnergyOverdrawMaintenance 0
scalar OsgEarthNet.uav[33] utilizationCountMissions 23
scalar OsgEarthNet.uav[33] utilizationCountManeuversMission 477
scalar OsgEarthNet.uav[33] utilizationCountManeuversMaintenance 46
scalar OsgEarthNet.uav[33] utilizationCountChargeState 23
scalar OsgEarthNet.uav[33] utilizationCountOverdrawnAfterMission 0
scalar OsgEarthNet.uav[33] utilizationCountIdleState 24
scalar OsgEarthNet.uav[33] utilizationFail 0
scalar OsgEarthNet.uav[33] simulationTime 259200
scalar OsgEarthNet.uav[34] utilizationSecMission 14724.40985148
scalar OsgEarthNet.uav[34] utilizationSecMaintenance 10851.723074394
scalar OsgEarthNet.uav[34] utilizationSecCharge 101680.10408662
scalar OsgEarthNet.uav[34] utilizationSecIdle 131943.76198751
scalar OsgEarthNet.uav[34] utilizationEnergyMission 71704.166778564
scalar OsgEarthNet.uav[34] utilizationEnergyMaintenance 51250.854301453
scalar OsgEarthNet.uav[34] utilizationEnergyCharge 124635.27075195
scalar OsgEarthNet.uav[34] utilizationEnergyOverdrawMission 0
scalar OsgEarthNet.uav[34] utilizationEnergyOverdrawMaintenance 0
scalar OsgEarthNet.uav[34] utilizationCountMissions 33
scalar OsgEarthNet.uav[34] utilizationCountManeuversMission 467
scalar OsgEarthNet.uav[34] utilizationCountManeuversMaintenance 66
scalar OsgEarthNet.uav[34] utilizationCountChargeState 33
scalar OsgEarthNet.uav[34] utilizationCountOverdrawnAfterMission 0
scalar OsgEarthNet.uav[34] utilizationCountIdleState 33
scalar OsgEarthNet.uav[34] utilizationFail 0
scalar OsgEarthNet.uav[34] simulationTime 259200
scalar OsgEarthNet.uav[35] utilizationSecMission 40034.050669934
scalar OsgEarthNet.uav[35] utilizationSecMaintenance 17169.830980656
scalar OsgEarthNet.uav[35] utilizationSecCharge 196764.11134941
scalar OsgEarthNet.uav[35] utilizationSecIdle 5232.006
scalar OsgEarthNet.uav[35] utilizationEnergyMission 193012.16108704
scalar OsgEarthNet.uav[35] utilizationEnergyMaintenance 79661.678684235
scalar OsgEarthNet.uav[35] utilizationEnergyCharge 270967.16796875
scalar OsgEarthNet.uav[35] utilizationEnergyOverdrawMission 0
scalar OsgEarthNet.uav[35] utilizationEnergyOverdrawMaintenance 0
scalar OsgEarthNet.uav[35] utilizationCountMissions 59
scalar OsgEarthNet.uav[35] utilizationCountManeuversMission 1235
scalar OsgEarthNet.uav[35] utilizationCountManeuversMaintenance 118
scalar OsgEarthNet.uav[35] utilizationCountChargeState 59
scalar OsgEarthNet.uav[35] utilizationCountOverdrawnAfterMission 0
scalar OsgEarthNet.uav[35] utilizationCountIdleState 20
scalar OsgEarthNet.uav[35] utilizationFail 0
scalar OsgEarthNet.uav[35] simulationTime 259200
scalar OsgEarthNet.uav[36] utilizationSecMission 9062.5006103211
scalar OsgEarthNet.uav[36] utilizationSecMaintenance 6763.790506947
scalar OsgEarthNet.uav[36] utilizationSecCharge 56681.699882732
scalar OsgEarthNet.uav[36] utilizationSecIdle 186692.008
scalar OsgEarthNet.uav[36] utilizationEnergyMission 44724.513122559
scalar OsgEarthNet.uav[36] utilizationEnergyMaintenance 31757.423137665
scalar OsgEarthNet.uav[36] utilizationEnergyCharge 73241.076538086
scalar OsgEarthNet.uav[36] utilizationEnergyOverdrawMission 0
scalar OsgEarthNet.uav[36] utilizationEnergyOverdrawMaintenance 0
scalar OsgEarthNet.uav[36] utilizationCountMissions 17
scalar OsgEarthNet.uav[36] utilizationCountManeuversMission 349
scalar OsgEarthNet.uav[36] utilizationCountManeuversMaintenance 34
scalar OsgEarthNet.uav[36] utilizationCountChargeState 17
scalar OsgEarthNet.uav[36] utilizationCountOverdrawnAfterMission 0
scalar OsgEarthNet.uav[36] utilizationCountIdleState 17
scalar OsgEarthNet.uav[36] utilizationFail 0
scalar OsgEarthNet.uav[36] simulationTime 259200
scalar OsgEarthNet.uav[37] utilizationSecMission 15690.305514487
scalar OsgEarthNet.uav[37] utilizationSecMaintenance 11044.06892421
scalar OsgEarthNet.uav[37] utilizationSecCharge 105160
scalar OsgEarthNet.uav[37] utilizationSecIdle 127305.6245613
scalar OsgEarthNet.uav[37] utilizationEnergyMission 76337.299808502
scalar OsgEarthNet.uav[37] utilizationEnergyMaintenance 52285.361038208
scalar OsgEarthNet.uav[37] utilizationEnergyCharge 128450.4777832
scalar OsgEarthNet.uav[37] utilizationEnergyOverdrawMission 0
scalar OsgEarthNet.uav[37] utilizationEnergyOverdrawMaintenance 0
scalar OsgEarthNet.uav[37] utilizationCountMissions 34
scalar OsgEarthNet.uav[37] utilizationCountManeuversMission 471
scalar OsgEarthNet.uav[37] utilizationCountManeuversMaintenance 68
scalar OsgEarthNet.uav[37] utilizationCountChargeState 34
scalar OsgEarthNet.uav[37] utilizationCountOverdrawnAfterMission 0
scalar OsgEarthNet.uav[37] utilizationCountIdleState 35
scalar OsgEarthNet.uav[37] utilizationFail 0
scalar OsgEarthNet.uav[37] simulationTime 259200
scalar OsgEarthNet.uav[38] utilizationSecMission 40511.112165056
scalar OsgEarthNet.uav[38] utilizationSecMaintenance 16120.918806736
scalar OsgEarthNet.uav[38] utilizationSecCharge 195714.50698543
scalar OsgEarthNet.uav[38] utilizationSecIdle 6853.4610427756
scalar OsgEarthNet.uav[38] utilizationEnergyMission 190058.7263298
scalar OsgEarthNet.uav[38] utilizationEnergyMaintenance 74652.873493195
scalar OsgEarthNet.uav[38] utilizationEnergyCharge 268219.42285156
scalar OsgEarthNet.uav[38] utilizationEnergyOverdrawMission 0
scalar OsgEarthNet.uav[38] utilizationEnergyOverdrawMaintenance 0
scalar OsgEarthNet.uav[38] utilizationCountMissions 58
scalar OsgEarthNet.uav[38] utilizationCountManeuversMission 1044
scalar OsgEarthNet.uav[38] utilizationCountManeuversMaintenance 116
scalar OsgEarthNet.uav[38] utilizationCountChargeState 58
scalar OsgEarthNet.uav[38] utilizationCountOverdrawnAfterMission 0
scalar OsgEarthNet.uav[38] utilizationCountIdleState 23
scalar OsgEarthNet.uav[38] utilizationFail 0
scalar OsgEarthNet.uav[38] simulationTime 259200
scalar OsgEarthNet.uav[39] utilizationSecMission 13895.993487052
scalar OsgEarthNet.uav[39] utilizationSecMaintenance 8762.9321027914
scalar OsgEarthNet.uav[39] utilizationSecCharge 85850
scalar OsgEarthNet.uav[39] utilizationSecIdle 150691.07341016
scalar OsgEarthNet.uav[39] utilizationEnergyMission 69028.114536285
scalar OsgEarthNet.uav[39] utilizationEnergyMaintenance 41959.075145721
scalar OsgEarthNet.uav[39] utilizationEnergyCharge 111123.09375
scalar OsgEarthNet.uav[39] utilizationEnergyOverdrawMission 0
scalar OsgEarthNet.uav[39] utilizationEnergyOverdrawMaintenance 0
scalar OsgEarthNet.uav[39] utilizationCountMissions 24
scalar OsgEarthNet.uav[39] utilizationCountManeuversMission 439
scalar OsgEarthNet.uav[39] utilizationCountManeuversMaintenance 48
scalar OsgEarthNet.uav[39] utilizationCountChargeState 24
scalar OsgEarthNet.uav[39] utilizationCountOverdrawnAfterMission 0
scalar OsgEarthNet.uav[39] utilizationCountIdleState 25
scalar OsgEarthNet.uav[39] utilizationFail 0
scalar OsgEarthNet.uav[39] simulationTime 259200
scalar OsgEarthNet.uav[40] utilizationSecMission 11404.376068062
scalar OsgEarthNet.uav[40] utilizationSecMaintenance 7440.7477798676
scalar OsgEarthNet.uav[40] utilizationSecCharge 70240
scalar OsgEarthNet.uav[40] utilizationSecIdle 170114.87515207
scalar OsgEarthNet.uav[40] utilizationEnergyMission 55243.58316803
scalar OsgEarthNet.uav[40] utilizationEnergyMaintenance 35542.129268646
scalar OsgEarthNet.uav[40] utilizationEnergyCharge 90431.269042969
scalar OsgEarthNet.uav[40] utilizationEnergyOverdrawMission 0
scalar OsgEarthNet.uav[40] utilizationEnergyOverdrawMaintenance 0
scalar OsgEarthNet.uav[40] utilizationCountMissions 20
scalar OsgEarthNet.uav[40] utilizationCountManeuversMission 388
scalar OsgEarthNet.uav[40] utilizationCountManeuversMaintenance 40
scalar OsgEarthNet.uav[40] utilizationCountChargeState 20
scalar OsgEarthNet.uav[40] utilizationCountOverdrawnAfterMission 0
scalar OsgEarthNet.uav[40] utilizationCountIdleState 21
scalar OsgEarthNet.uav[40] utilizationFail 0
scalar OsgEarthNet.uav[40] simulationTime 259200
scalar OsgEarthNet.uav[41] utilizationSecMission 18890.593985133
scalar OsgEarthNet.uav[41] utilizationSecMaintenance 12818.707388798
scalar OsgEarthNet.uav[41] utilizationSecCharge 121060
scalar OsgEarthNet.uav[41] utilizationSecIdle 106430.69762607
scalar OsgEarthNet.uav[41] utilizationEnergyMission 93399.840488434
scalar OsgEarthNet.uav[41] utilizationEnergyMaintenance 60570.950546265
scalar OsgEarthNet.uav[41] utilizationEnergyCharge 153271.87597656
scalar OsgEarthNet.uav[41] utilizationEnergyOverdrawMission 0
scalar OsgEarthNet.uav[41] utilizationEnergyOverdrawMaintenance 0
scalar OsgEarthNet.uav[41] utilizationCountMissions 36
scalar OsgEarthNet.uav[41] utilizationCountManeuversMission 729
scalar OsgEarthNet.uav[41] utilizationCountManeuversMaintenance 72
scalar OsgEarthNet.uav[41] utilizationCountChargeState 36
scalar OsgEarthNet.uav[41] utilizationCountOverdrawnAfterMission 0
scalar OsgEarthNet.uav[41] utilizationCountIdleState 37
scalar OsgEarthNet.uav[41] utilizationFail 0
scalar OsgEarthNet.uav[41] simulationTime 259200
scalar OsgEarthNet.uav[42] utilizationSecMission 40915.135967303
scalar OsgEarthNet.uav[42] utilizationSecMaintenance 17452.863032697
scalar OsgEarthNet.uav[42] utilizationSecCharge 198360
scalar OsgEarthNet.uav[42] utilizationSecIdle 2472
scalar OsgEarthNet.uav[42] utilizationEnergyMission 198628.71455412
scalar OsgEarthNet.uav[42] utilizationEnergyMaintenance 80440.579021454
scalar OsgEarthNet.uav[42] utilizationEnergyCharge 275414.88769531
scalar OsgEarthNet.uav[42] utilizationEnergyOverdrawMission 0
scalar OsgEarthNet.uav[42] utilizationEnergyOverdrawMaintenance 0
scalar OsgEarthNet.uav[42] utilizationCountMissions 60
scalar OsgEarthNet.uav[42] utilizationCountManeuversMission 1298
scalar OsgEarthNet.uav[42] utilizationCountManeuversMaintenance 120
scalar OsgEarthNet.uav[42] utilizationCountChargeState 60
scalar OsgEarthNet.uav[42] utilizationCountOverdrawnAfterMission 0
scalar OsgEarthNet.uav[42] utilizationCountIdleState 17
scalar OsgEarthNet.uav[42] utilizationFail 0
scalar OsgEarthNet.uav[42] simulationTime 259200
scalar OsgEarthNet.uav[43] utilizationSecMission 14520.472517766
scalar OsgEarthNet.uav[43] utilizationSecMaintenance 8181.7512877264
scalar OsgEarthNet.uav[43] utilizationSecCharge 81410
scalar OsgEarthNet.uav[43] utilizationSecIdle 155087.77519451
scalar OsgEarthNet.uav[43] utilizationEnergyMission 68428.833962801
scalar OsgEarthNet.uav[43] utilizationEnergyMaintenance 38521.61932373
scalar OsgEarthNet.uav[43] utilizationEnergyCharge 105213.79101562
scalar OsgEarthNet.uav[43] utilizationEnergyOverdrawMission 0
scalar OsgEarthNet.uav[43] utilizationEnergyOverdrawMaintenance 0
scalar OsgEarthNet.uav[43] utilizationCountMissions 23
scalar OsgEarthNet.uav[43] utilizationCountManeuversMission 427
scalar OsgEarthNet.uav[43] utilizationCountManeuversMaintenance 47
scalar OsgEarthNet.uav[43] utilizationCountChargeState 23
scalar OsgEarthNet.uav[43] utilizationCountOverdrawnAfterMission 0
scalar OsgEarthNet.uav[43] utilizationCountIdleState 24
scalar OsgEarthNet.uav[43] utilizationFail 0
scalar OsgEarthNet.uav[43] simulationTime 259200
scalar OsgEarthNet.uav[44] utilizationSecMission 17504.203051617
scalar OsgEarthNet.uav[44] utilizationSecMaintenance 12367.148192417
scalar OsgEarthNet.uav[44] utilizationSecCharge 117080
scalar OsgEarthNet.uav[44] utilizationSecIdle 112248.64775597
scalar OsgEarthNet.uav[44] utilizationEnergyMission 87959.160968781
scalar OsgEarthNet.uav[44] utilizationEnergyMaintenance 58629.93901062
scalar OsgEarthNet.uav[44] utilizationEnergyCharge 146034.40527344
scalar OsgEarthNet.uav[44] utilizationEnergyOverdrawMission 0
scalar OsgEarthNet.uav[44] utilizationEnergyOverdrawMaintenance 0
scalar OsgEarthNet.uav[44] utilizationCountMissions 36
scalar OsgEarthNet.uav[44] utilizationCountManeuversMission 629
scalar OsgEarthNet.uav[44] utilizationCountManeuversMaintenance 72
scalar OsgEarthNet.uav[44] utilizationCountChargeState 36
scalar OsgEarthNet.uav[44] utilizationCountOverdrawnAfterMission 0
scalar OsgEarthNet.uav[44] utilizationCountIdleState 37
scalar OsgEarthNet.uav[44] utilizationFail 0
scalar OsgEarthNet.uav[44] simulationTime 259200
scalar OsgEarthNet.uav[45] utilizationSecMission 40458.841007703
scalar OsgEarthNet.uav[45] utilizationSecMaintenance 16930.044330667
scalar OsgEarthNet.uav[45] utilizationSecCharge 196221.48258096
scalar OsgEarthNet.uav[45] utilizationSecIdle 5589.6310806652
scalar OsgEarthNet.uav[45] utilizationEnergyMission 193469.12688828
scalar OsgEarthNet.uav[45] utilizationEnergyMaintenance 78355.676898956
scalar OsgEarthNet.uav[45] utilizationEnergyCharge 269647.13439941
scalar OsgEarthNet.uav[45] utilizationEnergyOverdrawMission 0
scalar OsgEarthNet.uav[45] utilizationEnergyOverdrawMaintenance 0
scalar OsgEarthNet.uav[45] utilizationCountMissions 59
scalar OsgEarthNet.uav[45] utilizationCountManeuversMission 1176
scalar OsgEarthNet.uav[45] utilizationCountManeuversMaintenance 118
scalar OsgEarthNet.uav[45] utilizationCountChargeState 59
scalar OsgEarthNet.uav[45] utilizationCountOverdrawnAfterMission 0
scalar OsgEarthNet.uav[45] utilizationCountIdleState 24
scalar OsgEarthNet.uav[45] utilizationFail 0
scalar OsgEarthNet.uav[45] simulationTime 259200
scalar OsgEarthNet.uav[46] utilizationSecMission 11114.118029311
scalar OsgEarthNet.uav[46] utilizationSecMaintenance 7463.808459083
scalar OsgEarthNet.uav[46] utilizationSecCharge 70740
scalar OsgEarthNet.uav[46] utilizationSecIdle 169882.07251161
scalar OsgEarthNet.uav[46] utilizationEnergyMission 54027.94254303
scalar OsgEarthNet.uav[46] utilizationEnergyMaintenance 35995.145828247
scalar OsgEarthNet.uav[46] utilizationEnergyCharge 91564.409179688
scalar OsgEarthNet.uav[46] utilizationEnergyOverdrawMission 0
scalar OsgEarthNet.uav[46] utilizationEnergyOverdrawMaintenance 0
scalar OsgEarthNet.uav[46] utilizationCountMissions 20
scalar OsgEarthNet.uav[46] utilizationCountManeuversMission 378
scalar OsgEarthNet.uav[46] utilizationCountManeuversMaintenance 40
scalar OsgEarthNet.uav[46] utilizationCountChargeState 20
scalar OsgEarthNet.uav[46] utilizationCountOverdrawnAfterMission 0
scalar OsgEarthNet.uav[46] utilizationCountIdleState 21
scalar OsgEarthNet.uav[46] utilizationFail 0
scalar OsgEarthNet.uav[46] simulationTime 259200
scalar OsgEarthNet.uav[47] utilizationSecMission 16260.759949604
scalar OsgEarthNet.uav[47] utilizationSecMaintenance 11818.921013802
scalar OsgEarthNet.uav[47] utilizationSecCharge 111410
scalar OsgEarthNet.uav[47] utilizationSecIdle 119710.31803659
scalar OsgEarthNet.uav[47] utilizationEnergyMission 76858.790302277
scalar OsgEarthNet.uav[47] utilizationEnergyMaintenance 55932.522975922
scalar OsgEarthNet.uav[47] utilizationEnergyCharge 135982.66137695
scalar OsgEarthNet.uav[47] utilizationEnergyOverdrawMission 0
scalar OsgEarthNet.uav[47] utilizationEnergyOverdrawMaintenance 0
scalar OsgEarthNet.uav[47] utilizationCountMissions 36
scalar OsgEarthNet.uav[47] utilizationCountManeuversMission 514
scalar OsgEarthNet.uav[47] utilizationCountManeuversMaintenance 72
scalar OsgEarthNet.uav[47] utilizationCountChargeState 36
scalar OsgEarthNet.uav[47] utilizationCountOverdrawnAfterMission 0
scalar OsgEarthNet.uav[47] utilizationCountIdleState 37
scalar OsgEarthNet.uav[47] utilizationFail 0
scalar OsgEarthNet.uav[47] simulationTime 259200
scalar OsgEarthNet.uav[48] utilizationSecMission 40481.029298931
scalar OsgEarthNet.uav[48] utilizationSecMaintenance 17582.371354641
scalar OsgEarthNet.uav[48] utilizationSecCharge 199074.59834643
scalar OsgEarthNet.uav[48] utilizationSecIdle 2062
scalar OsgEarthNet.uav[48] utilizationEnergyMission 197026.50673294
scalar OsgEarthNet.uav[48] utilizationEnergyMaintenance 80900.158309937
scalar OsgEarthNet.uav[48] utilizationEnergyCharge 276178.2890625
scalar OsgEarthNet.uav[48] utilizationEnergyOverdrawMission 0
scalar OsgEarthNet.uav[48] utilizationEnergyOverdrawMaintenance 0
scalar OsgEarthNet.uav[48] utilizationCountMissions 60
scalar OsgEarthNet.uav[48] utilizationCountManeuversMission 1315
scalar OsgEarthNet.uav[48] utilizationCountManeuversMaintenance 120
scalar OsgEarthNet.uav[48] utilizationCountChargeState 60
scalar OsgEarthNet.uav[48] utilizationCountOverdrawnAfterMission 0
scalar OsgEarthNet.uav[48] utilizationCountIdleState 14
scalar OsgEarthNet.uav[48] utilizationFail 0
scalar OsgEarthNet.uav[48] simulationTime 259200
scalar OsgEarthNet.uav[49] utilizationSecMission 12376.618639633
scalar OsgEarthNet.uav[49] utilizationSecMaintenance 6708.928358137
scalar OsgEarthNet.uav[49] utilizationSecCharge 70640
scalar OsgEarthNet.uav[49] utilizationSecIdle 169474.45200223
scalar OsgEarthNet.uav[49] utilizationEnergyMission 59388.14944458
scalar OsgEarthNet.uav[49] utilizationEnergyMaintenance 31899.318252563
scalar OsgEarthNet.uav[49] utilizationEnergyCharge 91135.448242188
scalar OsgEarthNet.uav[49] utilizationEnergyOverdrawMission 0
scalar OsgEarthNet.uav[49] utilizationEnergyOverdrawMaintenance 0
scalar OsgEarthNet.uav[49] utilizationCountMissions 20
scalar OsgEarthNet.uav[49] utilizationCountManeuversMission 337
scalar OsgEarthNet.uav[49] utilizationCountManeuversMaintenance 40
scalar OsgEarthNet.uav[49] utilizationCountChargeState 20
scalar OsgEarthNet.uav[49] utilizationCountOverdrawnAfterMission 0
scalar OsgEarthNet.uav[49] utilizationCountIdleState 21
scalar OsgEarthNet.uav[49] utilizationFail 0
scalar OsgEarthNet.uav[49] simulationTime 259200
scalar OsgEarthNet.uav[50] utilizationSecMission 14604.376068062
scalar OsgEarthNet.uav[50] utilizationSecMaintenance 10485.402545846
scalar OsgEarthNet.uav[50] utilizationSecCharge 92456.828256947
scalar OsgEarthNet.uav[50] utilizationSecIdle 141653.39212915
scalar OsgEarthNet.uav[50] utilizationEnergyMission 73242.890640259
scalar OsgEarthNet.uav[50] utilizationEnergyMaintenance 50164.546768188
scalar OsgEarthNet.uav[50] utilizationEnergyCharge 119689.86279297
scalar OsgEarthNet.uav[50] utilizationEnergyOverdrawMission 0
scalar OsgEarthNet.uav[50] utilizationEnergyOverdrawMaintenance 0
scalar OsgEarthNet.uav[50] utilizationCountMissions 27
scalar OsgEarthNet.uav[50] utilizationCountManeuversMission 548
scalar OsgEarthNet.uav[50] utilizationCountManeuversMaintenance 54
scalar OsgEarthNet.uav[50] utilizationCountChargeState 27
scalar OsgEarthNet.uav[50] utilizationCountOverdrawnAfterMission 0
scalar OsgEarthNet.uav[50] utilizationCountIdleState 27
scalar OsgEarthNet.uav[50] utilizationFail 0
scalar OsgEarthNet.uav[50] simulationTime 259200
scalar OsgEarthNet.uav[51] utilizationSecMission 19889.18984439
scalar OsgEarthNet.uav[51] utilizationSecMaintenance 12956.838755682
scalar OsgEarthNet.uav[51] utilizationSecCharge 124381.96839993
scalar OsgEarthNet.uav[51] utilizationSecIdle 101972.002
scalar OsgEarthNet.uav[51] utilizationEnergyMission 99648.159351349
scalar OsgEarthNet.uav[51] utilizationEnergyMaintenance 61722.556495666
scalar OsgEarthNet.uav[51] utilizationEnergyCharge 157567.29833984
scalar OsgEarthNet.uav[51] utilizationEnergyOverdrawMission 0
scalar OsgEarthNet.uav[51] utilizationEnergyOverdrawMaintenance 0
scalar OsgEarthNet.uav[51] utilizationCountMissions 38
scalar OsgEarthNet.uav[51] utilizationCountManeuversMission 675
scalar OsgEarthNet.uav[51] utilizationCountManeuversMaintenance 76
scalar OsgEarthNet.uav[51] utilizationCountChargeState 38
scalar OsgEarthNet.uav[51] utilizationCountOverdrawnAfterMission 0
scalar OsgEarthNet.uav[51] utilizationCountIdleState 38
scalar OsgEarthNet.uav[51] utilizationFail 0
scalar OsgEarthNet.uav[51] simulationTime 259200
scalar OsgEarthNet.uav[52] utilizationSecMission 41571.192322523
scalar OsgEarthNet.uav[52] utilizationSecMaintenance 16711.418313803
scalar OsgEarthNet.uav[52] utilizationSecCharge 197245.38536367
scalar OsgEarthNet.uav[52] utilizationSecIdle 3672.003
scalar OsgEarthNet.uav[52] utilizationEnergyMission 195133.69325256
scalar OsgEarthNet.uav[52] utilizationEnergyMaintenance 76570.207279205
scalar OsgEarthNet.uav[52] utilizationEnergyCharge 269994.49145508
scalar OsgEarthNet.uav[52] utilizationEnergyOverdrawMission 0
scalar OsgEarthNet.uav[52] utilizationEnergyOverdrawMaintenance 0
scalar OsgEarthNet.uav[52] utilizationCountMissions 59
scalar OsgEarthNet.uav[52] utilizationCountManeuversMission 1011
scalar OsgEarthNet.uav[52] utilizationCountManeuversMaintenance 118
scalar OsgEarthNet.uav[52] utilizationCountChargeState 59
scalar OsgEarthNet.uav[52] utilizationCountOverdrawnAfterMission 0
scalar OsgEarthNet.uav[52] utilizationCountIdleState 20
scalar OsgEarthNet.uav[52] utilizationFail 0
scalar OsgEarthNet.uav[52] simulationTime 259200
scalar OsgEarthNet.uav[53] utilizationSecMission 20410.002441285
scalar OsgEarthNet.uav[53] utilizationSecMaintenance 11930.754916615
scalar OsgEarthNet.uav[53] utilizationSecCharge 119277.2416421
scalar OsgEarthNet.uav[53] utilizationSecIdle 107582
scalar OsgEarthNet.uav[53] utilizationEnergyMission 98564.701374054
scalar OsgEarthNet.uav[53] utilizationEnergyMaintenance 56788.292991638
scalar OsgEarthNet.uav[53] utilizationEnergyCharge 154752.9609375
scalar OsgEarthNet.uav[53] utilizationEnergyOverdrawMission 0
scalar OsgEarthNet.uav[53] utilizationEnergyOverdrawMaintenance 0
scalar OsgEarthNet.uav[53] utilizationCountMissions 34
scalar OsgEarthNet.uav[53] utilizationCountManeuversMission 604
scalar OsgEarthNet.uav[53] utilizationCountManeuversMaintenance 68
scalar OsgEarthNet.uav[53] utilizationCountChargeState 34
scalar OsgEarthNet.uav[53] utilizationCountOverdrawnAfterMission 0
scalar OsgEarthNet.uav[53] utilizationCountIdleState 34
scalar OsgEarthNet.uav[53] utilizationFail 0
scalar OsgEarthNet.uav[53] simulationTime 259200
scalar OsgEarthNet.uav[54] utilizationSecMission 18362.798910873
scalar OsgEarthNet.uav[54] utilizationSecMaintenance 12514.987394511
scalar OsgEarthNet.uav[54] utilizationSecCharge 121620
scalar OsgEarthNet.uav[54] utilizationSecIdle 106702.21269462
scalar OsgEarthNet.uav[54] utilizationEnergyMission 90415.799053192
scalar OsgEarthNet.uav[54] utilizationEnergyMaintenance 59469.459766388
scalar OsgEarthNet.uav[54] utilizationEnergyCharge 150650.17944336
scalar OsgEarthNet.uav[54] utilizationEnergyOverdrawMission 0
scalar OsgEarthNet.uav[54] utilizationEnergyOverdrawMaintenance 0
scalar OsgEarthNet.uav[54] utilizationCountMissions 38
scalar OsgEarthNet.uav[54] utilizationCountManeuversMission 568
scalar OsgEarthNet.uav[54] utilizationCountManeuversMaintenance 76
scalar OsgEarthNet.uav[54] utilizationCountChargeState 38
scalar OsgEarthNet.uav[54] utilizationCountOverdrawnAfterMission 0
scalar OsgEarthNet.uav[54] utilizationCountIdleState 39
scalar OsgEarthNet.uav[54] utilizationFail 0
scalar OsgEarthNet.uav[54] simulationTime 259200
scalar OsgEarthNet.uav[55] utilizationSecMission 40421.974829461
scalar OsgEarthNet.uav[55] utilizationSecMaintenance 17298.06614783
scalar OsgEarthNet.uav[55] utilizationSecCharge 195077.95302271
scalar OsgEarthNet.uav[55] utilizationSecIdle 6402.005
scalar OsgEarthNet.uav[55] utilizationEnergyMission 192076.6175766
scalar OsgEarthNet.uav[55] utilizationEnergyMaintenance 79323.620182037
scalar OsgEarthNet.uav[55] utilizationEnergyCharge 267813.46252441
scalar OsgEarthNet.uav[55] utilizationEnergyOverdrawMission 0
scalar OsgEarthNet.uav[55] utilizationEnergyOverdrawMaintenance 0
scalar OsgEarthNet.uav[55] utilizationCountMissions 59
scalar OsgEarthNet.uav[55] utilizationCountManeuversMission 1165
scalar OsgEarthNet.uav[55] utilizationCountManeuversMaintenance 118
scalar OsgEarthNet.uav[55] utilizationCountChargeState 59
scalar OsgEarthNet.uav[55] utilizationCountOverdrawnAfterMission 0
scalar OsgEarthNet.uav[55] utilizationCountIdleState 20
scalar OsgEarthNet.uav[55] utilizationFail 0
scalar OsgEarthNet.uav[55] simulationTime 259200
scalar OsgEarthNet.uav[56] utilizationSecMission 17245.001220642
scalar OsgEarthNet.uav[56] utilizationSecMaintenance 12633.018986777
scalar OsgEarthNet.uav[56] utilizationSecCharge 110139.96079258
scalar OsgEarthNet.uav[56] utilizationSecIdle 119182.018
scalar OsgEarthNet.uav[56] utilizationEnergyMission 85390.65688324
scalar OsgEarthNet.uav[56] utilizationEnergyMaintenance 59628.311523437
scalar OsgEarthNet.uav[56] utilizationEnergyCharge 142386.25219727
scalar OsgEarthNet.uav[56] utilizationEnergyOverdrawMission 0
scalar OsgEarthNet.uav[56] utilizationEnergyOverdrawMaintenance 0
scalar OsgEarthNet.uav[56] utilizationCountMissions 32
scalar OsgEarthNet.uav[56] utilizationCountManeuversMission 654
scalar OsgEarthNet.uav[56] utilizationCountManeuversMaintenance 64
scalar OsgEarthNet.uav[56] utilizationCountChargeState 32
scalar OsgEarthNet.uav[56] utilizationCountOverdrawnAfterMission 0
scalar OsgEarthNet.uav[56] utilizationCountIdleState 32
scalar OsgEarthNet.uav[56] utilizationFail 0
scalar OsgEarthNet.uav[56] simulationTime 259200
scalar OsgEarthNet.uav[57] utilizationSecMission 19545.539942514
scalar OsgEarthNet.uav[57] utilizationSecMaintenance 12737.182771865
scalar OsgEarthNet.uav[57] utilizationSecCharge 122125.26628562
scalar OsgEarthNet.uav[57] utilizationSecIdle 104792.01
scalar OsgEarthNet.uav[57] utilizationEnergyMission 95007.883178711
scalar OsgEarthNet.uav[57] utilizationEnergyMaintenance 60800.133308411
scalar OsgEarthNet.uav[57] utilizationEnergyCharge 153389.43530273
scalar OsgEarthNet.uav[57] utilizationEnergyOverdrawMission 0
scalar OsgEarthNet.uav[57] utilizationEnergyOverdrawMaintenance 0
scalar OsgEarthNet.uav[57] utilizationCountMissions 38
scalar OsgEarthNet.uav[57] utilizationCountManeuversMission 628
scalar OsgEarthNet.uav[57] utilizationCountManeuversMaintenance 76
scalar OsgEarthNet.uav[57] utilizationCountChargeState 38
scalar OsgEarthNet.uav[57] utilizationCountOverdrawnAfterMission 0
scalar OsgEarthNet.uav[57] utilizationCountIdleState 38
scalar OsgEarthNet.uav[57] utilizationFail 0
scalar OsgEarthNet.uav[57] simulationTime 259200
scalar OsgEarthNet.uav[58] utilizationSecMission 41101.400557955
scalar OsgEarthNet.uav[58] utilizationSecMaintenance 16160.192923252
scalar OsgEarthNet.uav[58] utilizationSecCharge 196348.56870475
scalar OsgEarthNet.uav[58] utilizationSecIdle 5589.83681404
scalar OsgEarthNet.uav[58] utilizationEnergyMission 198256.92952347
scalar OsgEarthNet.uav[58] utilizationEnergyMaintenance 73818.795078278
scalar OsgEarthNet.uav[58] utilizationEnergyCharge 267730.80664062
scalar OsgEarthNet.uav[58] utilizationEnergyOverdrawMission 0
scalar OsgEarthNet.uav[58] utilizationEnergyOverdrawMaintenance 0
scalar OsgEarthNet.uav[58] utilizationCountMissions 59
scalar OsgEarthNet.uav[58] utilizationCountManeuversMission 1231
scalar OsgEarthNet.uav[58] utilizationCountManeuversMaintenance 118
scalar OsgEarthNet.uav[58] utilizationCountChargeState 59
scalar OsgEarthNet.uav[58] utilizationCountOverdrawnAfterMission 0
scalar OsgEarthNet.uav[58] utilizationCountIdleState 25
scalar OsgEarthNet.uav[58] utilizationFail 0
scalar OsgEarthNet.uav[58] simulationTime 259200
scalar OsgEarthNet.uav[59] utilizationSecMission 16617.243792213
scalar OsgEarthNet.uav[59] utilizationSecMaintenance 10095.606165474
scalar OsgEarthNet.uav[59] utilizationSecCharge 95560
scalar OsgEarthNet.uav[59] utilizationSecIdle 136927.14904231
scalar OsgEarthNet.uav[59] utilizationEnergyMission 81203.492015839
scalar OsgEarthNet.uav[59] utilizationEnergyMaintenance 47737.314568293
scalar OsgEarthNet.uav[59] utilizationEnergyCharge 123407.50585938
scalar OsgEarthNet.uav[59] utilizationEnergyOverdrawMission 0
scalar OsgEarthNet.uav[59] utilizationEnergyOverdrawMaintenance 0
scalar OsgEarthNet.uav[59] utilizationCountMissions 28
scalar OsgEarthNet.uav[59] utilizationCountManeuversMission 523
scalar OsgEarthNet.uav[59] utilizationCountManeuversMaintenance 56
scalar OsgEarthNet.uav[59] utilizationCountChargeState 27
scalar OsgEarthNet.uav[59] utilizationCountOverdrawnAfterMission 0
scalar OsgEarthNet.uav[59] utilizationCountIdleState 28
scalar OsgEarthNet.uav[59] utilizationFail 0
scalar OsgEarthNet.uav[59] simulationTime 259200
scalar OsgEarthNet.uav[60] utilizationSecMission 15725.001220642
scalar OsgEarthNet.uav[60] utilizationSecMaintenance 11378.091128197
scalar OsgEarthNet.uav[60] utilizationSecCharge 99694.895651161
scalar OsgEarthNet.uav[60] utilizationSecIdle 132402.011
scalar OsgEarthNet.uav[60] utilizationEnergyMission 77553.395450592
scalar OsgEarthNet.uav[60] utilizationEnergyMaintenance 54399.263637543
scalar OsgEarthNet.uav[60] utilizationEnergyCharge 129141.51043701
scalar OsgEarthNet.uav[60] utilizationEnergyOverdrawMission 0
scalar OsgEarthNet.uav[60] utilizationEnergyOverdrawMaintenance 0
scalar OsgEarthNet.uav[60] utilizationCountMissions 29
scalar OsgEarthNet.uav[60] utilizationCountManeuversMission 578
scalar OsgEarthNet.uav[60] utilizationCountManeuversMaintenance 58
scalar OsgEarthNet.uav[60] utilizationCountChargeState 29
scalar OsgEarthNet.uav[60] utilizationCountOverdrawnAfterMission 0
scalar OsgEarthNet.uav[60] utilizationCountIdleState 29
scalar OsgEarthNet.uav[60] utilizationFail 0
scalar OsgEarthNet.uav[60] simulationTime 259200
scalar OsgEarthNet.uav[61] utilizationSecMission 19510.305514487
scalar OsgEarthNet.uav[61] utilizationSecMaintenance 13802.385685599
scalar OsgEarthNet.uav[61] utilizationSecCharge 129975.29979991
scalar OsgEarthNet.uav[61] utilizationSecIdle 95912.008
scalar OsgEarthNet.uav[61] utilizationEnergyMission 95187.780723572
scalar OsgEarthNet.uav[61] utilizationEnergyMaintenance 65585.553367615
scalar OsgEarthNet.uav[61] utilizationEnergyCharge 160810.96875
scalar OsgEarthNet.uav[61] utilizationEnergyOverdrawMission 0
scalar OsgEarthNet.uav[61] utilizationEnergyOverdrawMaintenance 0
scalar OsgEarthNet.uav[61] utilizationCountMissions 41
scalar OsgEarthNet.uav[61] utilizationCountManeuversMission 662
scalar OsgEarthNet.uav[61] utilizationCountManeuversMaintenance 82
scalar OsgEarthNet.uav[61] utilizationCountChargeState 41
scalar OsgEarthNet.uav[61] utilizationCountOverdrawnAfterMission 0
scalar OsgEarthNet.uav[61] utilizationCountIdleState 41
scalar OsgEarthNet.uav[61] utilizationFail 0
scalar OsgEarthNet.uav[61] simulationTime 259200
scalar OsgEarthNet.uav[62] utilizationSecMission 40428.0412957
scalar OsgEarthNet.uav[62] utilizationSecMaintenance 16793.163464191
scalar OsgEarthNet.uav[62] utilizationSecCharge 196178.75169269
scalar OsgEarthNet.uav[62] utilizationSecIdle 5800.0425474148
scalar OsgEarthNet.uav[62] utilizationEnergyMission 191856.68582535
scalar OsgEarthNet.uav[62] utilizationEnergyMaintenance 77401.448215485
scalar OsgEarthNet.uav[62] utilizationEnergyCharge 268540.09326172
scalar OsgEarthNet.uav[62] utilizationEnergyOverdrawMission 0
scalar OsgEarthNet.uav[62] utilizationEnergyOverdrawMaintenance 0
scalar OsgEarthNet.uav[62] utilizationCountMissions 59
scalar OsgEarthNet.uav[62] utilizationCountManeuversMission 1091
scalar OsgEarthNet.uav[62] utilizationCountManeuversMaintenance 118
scalar OsgEarthNet.uav[62] utilizationCountChargeState 59
scalar OsgEarthNet.uav[62] utilizationCountOverdrawnAfterMission 0
scalar OsgEarthNet.uav[62] utilizationCountIdleState 20
scalar OsgEarthNet.uav[62] utilizationFail 0
scalar OsgEarthNet.uav[62] simulationTime 259200
scalar OsgEarthNet.uav[63] utilizationSecMission 18180.476811933
scalar OsgEarthNet.uav[63] utilizationSecMaintenance 11453.817046302
scalar OsgEarthNet.uav[63] utilizationSecCharge 107083.07898098
scalar OsgEarthNet.uav[63] utilizationSecIdle 122482.62616079
scalar OsgEarthNet.uav[63] utilizationEnergyMission 86298.57245636
scalar OsgEarthNet.uav[63] utilizationEnergyMaintenance 54210.834644317
scalar OsgEarthNet.uav[63] utilizationEnergyCharge 139078.31225586
scalar OsgEarthNet.uav[63] utilizationEnergyOverdrawMission 0
scalar OsgEarthNet.uav[63] utilizationEnergyOverdrawMaintenance 0
scalar OsgEarthNet.uav[63] utilizationCountMissions 31
scalar OsgEarthNet.uav[63] utilizationCountManeuversMission 590
scalar OsgEarthNet.uav[63] utilizationCountManeuversMaintenance 62
scalar OsgEarthNet.uav[63] utilizationCountChargeState 31
scalar OsgEarthNet.uav[63] utilizationCountOverdrawnAfterMission 0
scalar OsgEarthNet.uav[63] utilizationCountIdleState 31
scalar OsgEarthNet.uav[63] utilizationFail 0
scalar OsgEarthNet.uav[63] simulationTime 259200
scalar OsgEarthNet.uav[64] utilizationSecMission 16814.243887009
scalar OsgEarthNet.uav[64] utilizationSecMaintenance 11466.119799895
scalar OsgEarthNet.uav[64] utilizationSecCharge 108080
scalar OsgEarthNet.uav[64] utilizationSecIdle 122839.6353131
scalar OsgEarthNet.uav[64] utilizationEnergyMission 82789.859298706
scalar OsgEarthNet.uav[64] utilizationEnergyMaintenance 54651.133953094
scalar OsgEarthNet.uav[64] utilizationEnergyCharge 136980.28515625
scalar OsgEarthNet.uav[64] utilizationEnergyOverdrawMission 0
scalar OsgEarthNet.uav[64] utilizationEnergyOverdrawMaintenance 0
scalar OsgEarthNet.uav[64] utilizationCountMissions 32
scalar OsgEarthNet.uav[64] utilizationCountManeuversMission 655
scalar OsgEarthNet.uav[64] utilizationCountManeuversMaintenance 64
scalar OsgEarthNet.uav[64] utilizationCountChargeState 32
scalar OsgEarthNet.uav[64] utilizationCountOverdrawnAfterMission 0
scalar OsgEarthNet.uav[64] utilizationCountIdleState 33
scalar OsgEarthNet.uav[64] utilizationFail 0
scalar OsgEarthNet.uav[64] simulationTime 259200
scalar OsgEarthNet.uav[65] utilizationSecMission 40396.521052831
scalar OsgEarthNet.uav[65] utilizationSecMaintenance 16987.269059597
scalar OsgEarthNet.uav[65] utilizationSecCharge 195776.75053948
[...]
scalar OsgEarthNet.uav[180] utilizationSecIdle 259199.999
scalar OsgEarthNet.uav[180] utilizationEnergyMission 0
scalar OsgEarthNet.uav[180] utilizationEnergyMaintenance 0
scalar OsgEarthNet.uav[180] utilizationEnergyCharge 0
scalar OsgEarthNet.uav[180] utilizationEnergyOverdrawMission 0
scalar OsgEarthNet.uav[180] utilizationEnergyOverdrawMaintenance 0
scalar OsgEarthNet.uav[180] utilizationCountMissions 0
scalar OsgEarthNet.uav[180] utilizationCountManeuversMission 0
scalar OsgEarthNet.uav[180] utilizationCountManeuversMaintenance 0
scalar OsgEarthNet.uav[180] utilizationCountChargeState 0
scalar OsgEarthNet.uav[180] utilizationCountOverdrawnAfterMission 0
scalar OsgEarthNet.uav[180] utilizationCountIdleState 1
scalar OsgEarthNet.uav[180] utilizationFail 0
scalar OsgEarthNet.uav[180] simulationTime 259200
scalar OsgEarthNet.uav[181] utilizationSecMission 0
scalar OsgEarthNet.uav[181] utilizationSecMaintenance 0
scalar OsgEarthNet.uav[181] utilizationSecCharge 0
scalar OsgEarthNet.uav[181] utilizationSecIdle 259199.999
scalar OsgEarthNet.uav[181] utilizationEnergyMission 0
scalar OsgEarthNet.uav[181] utilizationEnergyMaintenance 0
scalar OsgEarthNet.uav[181] utilizationEnergyCharge 0
scalar OsgEarthNet.uav[181] utilizationEnergyOverdrawMission 0
scalar OsgEarthNet.uav[181] utilizationEnergyOverdrawMaintenance 0
scalar OsgEarthNet.uav[181] utilizationCountMissions 0
scalar OsgEarthNet.uav[181] utilizationCountManeuversMission 0
scalar OsgEarthNet.uav[181] utilizationCountManeuversMaintenance 0
scalar OsgEarthNet.uav[181] utilizationCountChargeState 0
scalar OsgEarthNet.uav[181] utilizationCountOverdrawnAfterMission 0
scalar OsgEarthNet.uav[181] utilizationCountIdleState 1
scalar OsgEarthNet.uav[181] utilizationFail 0
scalar OsgEarthNet.uav[181] simulationTime 259200
scalar OsgEarthNet.uav[182] utilizationSecMission 0
scalar OsgEarthNet.uav[182] utilizationSecMaintenance 0
scalar OsgEarthNet.uav[182] utilizationSecCharge 0
scalar OsgEarthNet.uav[182] utilizationSecIdle 259199.999
scalar OsgEarthNet.uav[182] utilizationEnergyMission 0
scalar OsgEarthNet.uav[182] utilizationEnergyMaintenance 0
scalar OsgEarthNet.uav[182] utilizationEnergyCharge 0
scalar OsgEarthNet.uav[182] utilizationEnergyOverdrawMission 0
scalar OsgEarthNet.uav[182] utilizationEnergyOverdrawMaintenance 0
scalar OsgEarthNet.uav[182] utilizationCountMissions 0
scalar OsgEarthNet.uav[182] utilizationCountManeuversMission 0
scalar OsgEarthNet.uav[182] utilizationCountManeuversMaintenance 0
scalar OsgEarthNet.uav[182] utilizationCountChargeState 0
scalar OsgEarthNet.uav[182] utilizationCountOverdrawnAfterMission 0
scalar OsgEarthNet.uav[182] utilizationCountIdleState 1
scalar OsgEarthNet.uav[182] utilizationFail 0
scalar OsgEarthNet.uav[182] simulationTime 259200
scalar OsgEarthNet.uav[183] utilizationSecMission 0
scalar OsgEarthNet.uav[183] utilizationSecMaintenance 0
scalar OsgEarthNet.uav[183] utilizationSecCharge 0
scalar OsgEarthNet.uav[183] utilizationSecIdle 259199.999
scalar OsgEarthNet.uav[183] utilizationEnergyMission 0
scalar OsgEarthNet.uav[183] utilizationEnergyMaintenance 0
scalar OsgEarthNet.uav[183] utilizationEnergyCharge 0
scalar OsgEarthNet.uav[183] utilizationEnergyOverdrawMission 0
scalar OsgEarthNet.uav[183] utilizationEnergyOverdrawMaintenance 0
scalar OsgEarthNet.uav[183] utilizationCountMissions 0
scalar OsgEarthNet.uav[183] utilizationCountManeuversMission 0
scalar OsgEarthNet.uav[183] utilizationCountManeuversMaintenance 0
scalar OsgEarthNet.uav[183] utilizationCountChargeState 0
scalar OsgEarthNet.uav[183] utilizationCountOverdrawnAfterMission 0
scalar OsgEarthNet.uav[183] utilizationCountIdleState 1
scalar OsgEarthNet.uav[183] utilizationFail 0
scalar OsgEarthNet.uav[183] simulationTime 259200
scalar OsgEarthNet.uav[184] utilizationSecMission 0
scalar OsgEarthNet.uav[184] utilizationSecMaintenance 0
scalar OsgEarthNet.uav[184] utilizationSecCharge 0
scalar OsgEarthNet.uav[184] utilizationSecIdle 259199.999
scalar OsgEarthNet.uav[184] utilizationEnergyMission 0
scalar OsgEarthNet.uav[184] utilizationEnergyMaintenance 0
scalar OsgEarthNet.uav[184] utilizationEnergyCharge 0
scalar OsgEarthNet.uav[184] utilizationEnergyOverdrawMission 0
scalar OsgEarthNet.uav[184] utilizationEnergyOverdrawMaintenance 0
scalar OsgEarthNet.uav[184] utilizationCountMissions 0
scalar OsgEarthNet.uav[184] utilizationCountManeuversMission 0
scalar OsgEarthNet.uav[184] utilizationCountManeuversMaintenance 0
scalar OsgEarthNet.uav[184] utilizationCountChargeState 0
scalar OsgEarthNet.uav[184] utilizationCountOverdrawnAfterMission 0
scalar OsgEarthNet.uav[184] utilizationCountIdleState 1
scalar OsgEarthNet.uav[184] utilizationFail 0
scalar OsgEarthNet.uav[184] simulationTime 259200
scalar OsgEarthNet.uav[185] utilizationSecMission 0
scalar OsgEarthNet.uav[185] utilizationSecMaintenance 0
scalar OsgEarthNet.uav[185] utilizationSecCharge 0
scalar OsgEarthNet.uav[185] utilizationSecIdle 259199.999
scalar OsgEarthNet.uav[185] utilizationEnergyMission 0
scalar OsgEarthNet.uav[185] utilizationEnergyMaintenance 0
scalar OsgEarthNet.uav[185] utilizationEnergyCharge 0
scalar OsgEarthNet.uav[185] utilizationEnergyOverdrawMission 0
scalar OsgEarthNet.uav[185] utilizationEnergyOverdrawMaintenance 0
scalar OsgEarthNet.uav[185] utilizationCountMissions 0
scalar OsgEarthNet.uav[185] utilizationCountManeuversMission 0
scalar OsgEarthNet.uav[185] utilizationCountManeuversMaintenance 0
scalar OsgEarthNet.uav[185] utilizationCountChargeState 0
scalar OsgEarthNet.uav[185] utilizationCountOverdrawnAfterMission 0
scalar OsgEarthNet.uav[185] utilizationCountIdleState 1
scalar OsgEarthNet.uav[185] utilizationFail 0
scalar OsgEarthNet.uav[185] simulationTime 259200
scalar OsgEarthNet.uav[186] utilizationSecMission 0
scalar OsgEarthNet.uav[186] utilizationSecMaintenance 0
scalar OsgEarthNet.uav[186] utilizationSecCharge 0
scalar OsgEarthNet.uav[186] utilizationSecIdle 259199.999
scalar OsgEarthNet.uav[186] utilizationEnergyMission 0
scalar OsgEarthNet.uav[186] utilizationEnergyMaintenance 0
scalar OsgEarthNet.uav[186] utilizationEnergyCharge 0
scalar OsgEarthNet.uav[186] utilizationEnergyOverdrawMission 0
scalar OsgEarthNet.uav[186] utilizationEnergyOverdrawMaintenance 0
scalar OsgEarthNet.uav[186] utilizationCountMissions 0
scalar OsgEarthNet.uav[186] utilizationCountManeuversMission 0
scalar OsgEarthNet.uav[186] utilizationCountManeuversMaintenance 0
scalar OsgEarthNet.uav[186] utilizationCountChargeState 0
scalar OsgEarthNet.uav[186] utilizationCountOverdrawnAfterMission 0
scalar OsgEarthNet.uav[186] utilizationCountIdleState 1
scalar OsgEarthNet.uav[186] utilizationFail 0
scalar OsgEarthNet.uav[186] simulationTime 259200
scalar OsgEarthNet.uav[187] utilizationSecMission 0
scalar OsgEarthNet.uav[187] utilizationSecMaintenance 0
scalar OsgEarthNet.uav[187] utilizationSecCharge 0
scalar OsgEarthNet.uav[187] utilizationSecIdle 259199.999
scalar OsgEarthNet.uav[187] utilizationEnergyMission 0
scalar OsgEarthNet.uav[187] utilizationEnergyMaintenance 0
scalar OsgEarthNet.uav[187] utilizationEnergyCharge 0
scalar OsgEarthNet.uav[187] utilizationEnergyOverdrawMission 0
scalar OsgEarthNet.uav[187] utilizationEnergyOverdrawMaintenance 0
scalar OsgEarthNet.uav[187] utilizationCountMissions 0
scalar OsgEarthNet.uav[187] utilizationCountManeuversMission 0
scalar OsgEarthNet.uav[187] utilizationCountManeuversMaintenance 0
scalar OsgEarthNet.uav[187] utilizationCountChargeState 0
scalar OsgEarthNet.uav[187] utilizationCountOverdrawnAfterMission 0
scalar OsgEarthNet.uav[187] utilizationCountIdleState 1
scalar OsgEarthNet.uav[187] utilizationFail 0
scalar OsgEarthNet.uav[187] simulationTime 259200
scalar OsgEarthNet.uav[188] utilizationSecMission 0
scalar OsgEarthNet.uav[188] utilizationSecMaintenance 0
scalar OsgEarthNet.uav[188] utilizationSecCharge 0
scalar OsgEarthNet.uav[188] utilizationSecIdle 259199.999
scalar OsgEarthNet.uav[188] utilizationEnergyMission 0
scalar OsgEarthNet.uav[188] utilizationEnergyMaintenance 0
scalar OsgEarthNet.uav[188] utilizationEnergyCharge 0
scalar OsgEarthNet.uav[188] utilizationEnergyOverdrawMission 0
scalar OsgEarthNet.uav[188] utilizationEnergyOverdrawMaintenance 0
scalar OsgEarthNet.uav[188] utilizationCountMissions 0
scalar OsgEarthNet.uav[188] utilizationCountManeuversMission 0
scalar OsgEarthNet.uav[188] utilizationCountManeuversMaintenance 0
scalar OsgEarthNet.uav[188] utilizationCountChargeState 0
scalar OsgEarthNet.uav[188] utilizationCountOverdrawnAfterMission 0
scalar OsgEarthNet.uav[188] utilizationCountIdleState 1
scalar OsgEarthNet.uav[188] utilizationFail 0
scalar OsgEarthNet.uav[188] simulationTime 259200
scalar OsgEarthNet.uav[189] utilizationSecMission 0
scalar OsgEarthNet.uav[189] utilizationSecMaintenance 0
scalar OsgEarthNet.uav[189] utilizationSecCharge 0
scalar OsgEarthNet.uav[189] utilizationSecIdle 259199.999
scalar OsgEarthNet.uav[189] utilizationEnergyMission 0
scalar OsgEarthNet.uav[189] utilizationEnergyMaintenance 0
scalar OsgEarthNet.uav[189] utilizationEnergyCharge 0
scalar OsgEarthNet.uav[189] utilizationEnergyOverdrawMission 0
scalar OsgEarthNet.uav[189] utilizationEnergyOverdrawMaintenance 0
scalar OsgEarthNet.uav[189] utilizationCountMissions 0
scalar OsgEarthNet.uav[189] utilizationCountManeuversMission 0
scalar OsgEarthNet.uav[189] utilizationCountManeuversMaintenance 0
scalar OsgEarthNet.uav[189] utilizationCountChargeState 0
scalar OsgEarthNet.uav[189] utilizationCountOverdrawnAfterMission 0
scalar OsgEarthNet.uav[189] utilizationCountIdleState 1
scalar OsgEarthNet.uav[189] utilizationFail 0
scalar OsgEarthNet.uav[189] simulationTime 259200
scalar OsgEarthNet.uav[190] utilizationSecMission 0
scalar OsgEarthNet.uav[190] utilizationSecMaintenance 0
scalar OsgEarthNet.uav[190] utilizationSecCharge 0
scalar OsgEarthNet.uav[190] utilizationSecIdle 259199.999
scalar OsgEarthNet.uav[190] utilizationEnergyMission 0
scalar OsgEarthNet.uav[190] utilizationEnergyMaintenance 0
scalar OsgEarthNet.uav[190] utilizationEnergyCharge 0
scalar OsgEarthNet.uav[190] utilizationEnergyOverdrawMission 0
scalar OsgEarthNet.uav[190] utilizationEnergyOverdrawMaintenance 0
scalar OsgEarthNet.uav[190] utilizationCountMissions 0
scalar OsgEarthNet.uav[190] utilizationCountManeuversMission 0
scalar OsgEarthNet.uav[190] utilizationCountManeuversMaintenance 0
scalar OsgEarthNet.uav[190] utilizationCountChargeState 0
scalar OsgEarthNet.uav[190] utilizationCountOverdrawnAfterMission 0
scalar OsgEarthNet.uav[190] utilizationCountIdleState 1
scalar OsgEarthNet.uav[190] utilizationFail 0
scalar OsgEarthNet.uav[190] simulationTime 259200
scalar OsgEarthNet.uav[191] utilizationSecMission 0
scalar OsgEarthNet.uav[191] utilizationSecMaintenance 0
scalar OsgEarthNet.uav[191] utilizationSecCharge 0
scalar OsgEarthNet.uav[191] utilizationSecIdle 259199.999
scalar OsgEarthNet.uav[191] utilizationEnergyMission 0
scalar OsgEarthNet.uav[191] utilizationEnergyMaintenance 0
scalar OsgEarthNet.uav[191] utilizationEnergyCharge 0
scalar OsgEarthNet.uav[191] utilizationEnergyOverdrawMission 0
scalar OsgEarthNet.uav[191] utilizationEnergyOverdrawMaintenance 0
scalar OsgEarthNet.uav[191] utilizationCountMissions 0
scalar OsgEarthNet.uav[191] utilizationCountManeuversMission 0
scalar OsgEarthNet.uav[191] utilizationCountManeuversMaintenance 0
scalar OsgEarthNet.uav[191] utilizationCountChargeState 0
scalar OsgEarthNet.uav[191] utilizationCountOverdrawnAfterMission 0
scalar OsgEarthNet.uav[191] utilizationCountIdleState 1
scalar OsgEarthNet.uav[191] utilizationFail 0
scalar OsgEarthNet.uav[191] simulationTime 259200
scalar OsgEarthNet.uav[192] utilizationSecMission 0
scalar OsgEarthNet.uav[192] utilizationSecMaintenance 0
scalar OsgEarthNet.uav[192] utilizationSecCharge 0
scalar OsgEarthNet.uav[192] utilizationSecIdle 259199.999
scalar OsgEarthNet.uav[192] utilizationEnergyMission 0
scalar OsgEarthNet.uav[192] utilizationEnergyMaintenance 0
scalar OsgEarthNet.uav[192] utilizationEnergyCharge 0
scalar OsgEarthNet.uav[192] utilizationEnergyOverdrawMission 0
scalar OsgEarthNet.uav[192] utilizationEnergyOverdrawMaintenance 0
scalar OsgEarthNet.uav[192] utilizationCountMissions 0
scalar OsgEarthNet.uav[192] utilizationCountManeuversMission 0
scalar OsgEarthNet.uav[192] utilizationCountManeuversMaintenance 0
scalar OsgEarthNet.uav[192] utilizationCountChargeState 0
scalar OsgEarthNet.uav[192] utilizationCountOverdrawnAfterMission 0
scalar OsgEarthNet.uav[192] utilizationCountIdleState 1
scalar OsgEarthNet.uav[192] utilizationFail 0
scalar OsgEarthNet.uav[192] simulationTime 259200
scalar OsgEarthNet.uav[193] utilizationSecMission 0
scalar OsgEarthNet.uav[193] utilizationSecMaintenance 0
scalar OsgEarthNet.uav[193] utilizationSecCharge 0
scalar OsgEarthNet.uav[193] utilizationSecIdle 259199.999
scalar OsgEarthNet.uav[193] utilizationEnergyMission 0
scalar OsgEarthNet.uav[193] utilizationEnergyMaintenance 0
scalar OsgEarthNet.uav[193] utilizationEnergyCharge 0
scalar OsgEarthNet.uav[193] utilizationEnergyOverdrawMission 0
scalar OsgEarthNet.uav[193] utilizationEnergyOverdrawMaintenance 0
scalar OsgEarthNet.uav[193] utilizationCountMissions 0
scalar OsgEarthNet.uav[193] utilizationCountManeuversMission 0
scalar OsgEarthNet.uav[193] utilizationCountManeuversMaintenance 0
scalar OsgEarthNet.uav[193] utilizationCountChargeState 0
scalar OsgEarthNet.uav[193] utilizationCountOverdrawnAfterMission 0
scalar OsgEarthNet.uav[193] utilizationCountIdleState 1
scalar OsgEarthNet.uav[193] utilizationFail 0
scalar OsgEarthNet.uav[193] simulationTime 259200
scalar OsgEarthNet.uav[194] utilizationSecMission 0
scalar OsgEarthNet.uav[194] utilizationSecMaintenance 0
scalar OsgEarthNet.uav[194] utilizationSecCharge 0
scalar OsgEarthNet.uav[194] utilizationSecIdle 259199.999
scalar OsgEarthNet.uav[194] utilizationEnergyMission 0
scalar OsgEarthNet.uav[194] utilizationEnergyMaintenance 0
scalar OsgEarthNet.uav[194] utilizationEnergyCharge 0
scalar OsgEarthNet.uav[194] utilizationEnergyOverdrawMission 0
scalar OsgEarthNet.uav[194] utilizationEnergyOverdrawMaintenance 0
scalar OsgEarthNet.uav[194] utilizationCountMissions 0
scalar OsgEarthNet.uav[194] utilizationCountManeuversMission 0
scalar OsgEarthNet.uav[194] utilizationCountManeuversMaintenance 0
scalar OsgEarthNet.uav[194] utilizationCountChargeState 0
scalar OsgEarthNet.uav[194] utilizationCountOverdrawnAfterMission 0
scalar OsgEarthNet.uav[194] utilizationCountIdleState 1
scalar OsgEarthNet.uav[194] utilizationFail 0
scalar OsgEarthNet.uav[194] simulationTime 259200
scalar OsgEarthNet.uav[195] utilizationSecMission 0
scalar OsgEarthNet.uav[195] utilizationSecMaintenance 0
scalar OsgEarthNet.uav[195] utilizationSecCharge 0
scalar OsgEarthNet.uav[195] utilizationSecIdle 259199.999
scalar OsgEarthNet.uav[195] utilizationEnergyMission 0
scalar OsgEarthNet.uav[195] utilizationEnergyMaintenance 0
scalar OsgEarthNet.uav[195] utilizationEnergyCharge 0
scalar OsgEarthNet.uav[195] utilizationEnergyOverdrawMission 0
scalar OsgEarthNet.uav[195] utilizationEnergyOverdrawMaintenance 0
scalar OsgEarthNet.uav[195] utilizationCountMissions 0
scalar OsgEarthNet.uav[195] utilizationCountManeuversMission 0
scalar OsgEarthNet.uav[195] utilizationCountManeuversMaintenance 0
scalar OsgEarthNet.uav[195] utilizationCountChargeState 0
scalar OsgEarthNet.uav[195] utilizationCountOverdrawnAfterMission 0
scalar OsgEarthNet.uav[195] utilizationCountIdleState 1
scalar OsgEarthNet.uav[195] utilizationFail 0
scalar OsgEarthNet.uav[195] simulationTime 259200
scalar OsgEarthNet.uav[196] utilizationSecMission 0
scalar OsgEarthNet.uav[196] utilizationSecMaintenance 0
scalar OsgEarthNet.uav[196] utilizationSecCharge 0
scalar OsgEarthNet.uav[196] utilizationSecIdle 259199.999
scalar OsgEarthNet.uav[196] utilizationEnergyMission 0
scalar OsgEarthNet.uav[196] utilizationEnergyMaintenance 0
scalar OsgEarthNet.uav[196] utilizationEnergyCharge 0
scalar OsgEarthNet.uav[196] utilizationEnergyOverdrawMission 0
scalar OsgEarthNet.uav[196] utilizationEnergyOverdrawMaintenance 0
scalar OsgEarthNet.uav[196] utilizationCountMissions 0
scalar OsgEarthNet.uav[196] utilizationCountManeuversMission 0
scalar OsgEarthNet.uav[196] utilizationCountManeuversMaintenance 0
scalar OsgEarthNet.uav[196] utilizationCountChargeState 0
scalar OsgEarthNet.uav[196] utilizationCountOverdrawnAfterMission 0
scalar OsgEarthNet.uav[196] utilizationCountIdleState 1
scalar OsgEarthNet.uav[196] utilizationFail 0
scalar OsgEarthNet.uav[196] simulationTime 259200
scalar OsgEarthNet.uav[197] utilizationSecMission 0
scalar OsgEarthNet.uav[197] utilizationSecMaintenance 0
scalar OsgEarthNet.uav[197] utilizationSecCharge 0
scalar OsgEarthNet.uav[197] utilizationSecIdle 259199.999
scalar OsgEarthNet.uav[197] utilizationEnergyMission 0
scalar OsgEarthNet.uav[197] utilizationEnergyMaintenance 0
scalar OsgEarthNet.uav[197] utilizationEnergyCharge 0
scalar OsgEarthNet.uav[197] utilizationEnergyOverdrawMission 0
scalar OsgEarthNet.uav[197] utilizationEnergyOverdrawMaintenance 0
scalar OsgEarthNet.uav[197] utilizationCountMissions 0
scalar OsgEarthNet.uav[197] utilizationCountManeuversMission 0
scalar OsgEarthNet.uav[197] utilizationCountManeuversMaintenance 0
scalar OsgEarthNet.uav[197] utilizationCountChargeState 0
scalar OsgEarthNet.uav[197] utilizationCountOverdrawnAfterMission 0
scalar OsgEarthNet.uav[197] utilizationCountIdleState 1
scalar OsgEarthNet.uav[197] utilizationFail 0
scalar OsgEarthNet.uav[197] simulationTime 259200
scalar OsgEarthNet.uav[198] utilizationSecMission 0
scalar OsgEarthNet.uav[198] utilizationSecMaintenance 0
scalar OsgEarthNet.uav[198] utilizationSecCharge 0
scalar OsgEarthNet.uav[198] utilizationSecIdle 259199.999
scalar OsgEarthNet.uav[198] utilizationEnergyMission 0
scalar OsgEarthNet.uav[198] utilizationEnergyMaintenance 0
scalar OsgEarthNet.uav[198] utilizationEnergyCharge 0
scalar OsgEarthNet.uav[198] utilizationEnergyOverdrawMission 0
scalar OsgEarthNet.uav[198] utilizationEnergyOverdrawMaintenance 0
scalar OsgEarthNet.uav[198] utilizationCountMissions 0
scalar OsgEarthNet.uav[198] utilizationCountManeuversMission 0
scalar OsgEarthNet.uav[198] utilizationCountManeuversMaintenance 0
scalar OsgEarthNet.uav[198] utilizationCountChargeState 0
scalar OsgEarthNet.uav[198] utilizationCountOverdrawnAfterMission 0
scalar OsgEarthNet.uav[198] utilizationCountIdleState 1
scalar OsgEarthNet.uav[198] utilizationFail 0
scalar OsgEarthNet.uav[198] simulationTime 259200
scalar OsgEarthNet.uav[199] utilizationSecMission 0
scalar OsgEarthNet.uav[199] utilizationSecMaintenance 0
scalar OsgEarthNet.uav[199] utilizationSecCharge 0
scalar OsgEarthNet.uav[199] utilizationSecIdle 259199.999
scalar OsgEarthNet.uav[199] utilizationEnergyMission 0
scalar OsgEarthNet.uav[199] utilizationEnergyMaintenance 0
scalar OsgEarthNet.uav[199] utilizationEnergyCharge 0
scalar OsgEarthNet.uav[199] utilizationEnergyOverdrawMission 0
scalar OsgEarthNet.uav[199] utilizationEnergyOverdrawMaintenance 0
scalar OsgEarthNet.uav[199] utilizationCountMissions 0
scalar OsgEarthNet.uav[199] utilizationCountManeuversMission 0
scalar OsgEarthNet.uav[199] utilizationCountManeuversMaintenance 0
scalar OsgEarthNet.uav[199] utilizationCountChargeState 0
scalar OsgEarthNet.uav[199] utilizationCountOverdrawnAfterMission 0
scalar OsgEarthNet.uav[199] utilizationCountIdleState 1
scalar OsgEarthNet.uav[199] utilizationFail 0
scalar OsgEarthNet.uav[199] simulationTime 259200
scalar OsgEarthNet.cs[0] usedPower 4037785.126537
scalar OsgEarthNet.cs[0] chargedPower 4037785.126537
scalar OsgEarthNet.cs[0] chargedMobileNodes 879
scalar OsgEarthNet.cs[0] reservations 892
scalar OsgEarthNet.cs[1] usedPower 4147189.9357913
scalar OsgEarthNet.cs[1] chargedPower 4147189.9357913
scalar OsgEarthNet.cs[1] chargedMobileNodes 1034
scalar OsgEarthNet.cs[1] reservations 1048
scalar OsgEarthNet.cs[2] usedPower 8665031.899779
scalar OsgEarthNet.cs[2] chargedPower 8665031.899779
scalar OsgEarthNet.cs[2] chargedMobileNodes 601
scalar OsgEarthNet.cs[2] reservations 1894

