version 2
run Szenario_Hotel_Gabelbach-219-20180712-06:27:27-16484
attr configname Szenario_Hotel_Gabelbach
attr datetime 20180712-06:27:27
attr experiment Szenario_Hotel_Gabelbach
attr inifile omnetpp.ini
attr iterationvars "$replM=2, $biWeight=0.35, $replSearchM=1, $numUAVs=100"
attr iterationvarsf replM=2,biWeight=0.35,replSearchM=1,numUAVs=100-
attr measurement "$replM=2, $biWeight=0.35, $replSearchM=1, $numUAVs=100"
attr network OsgEarthNet
attr processid 16484
attr repetition 3
attr replication #3
attr resultdir results
attr runnumber 219
attr seedset 219
itervar biWeight 0.35
itervar numUAVs 100
itervar replM 2
itervar replSearchM 1
param *.osgEarthScene.scene "\"Szenario_Hotel_Gabelbach.earth\""
param *.playgroundLatitude 50.6830269
param *.playgroundLongitude 10.8538055
param *.playgroundWidth 3500m
param *.playgroundHeight 3500m
param *.cs[0].posX 3537m
param *.cs[0].posY 965m
param *.cs[0].posZ 538m
param *.cs[1].posX 312m
param *.cs[1].posY 1262m
param *.cs[1].posZ 539m
param *.cs[2].posX 2185m
param *.cs[2].posY 3026m
param *.cs[2].posZ 777m
param *.cs[3].posX 10m
param *.cs[3].posY 2200m
param *.cs[3].posZ 560m
param *.cs[4].posX 750m
param *.cs[4].posY 200m
param *.cs[4].posZ 540m
param *.cs[5].posX 2450m
param *.cs[5].posY 180m
param *.cs[5].posZ 524m
param *.cs[6].posX 3140m
param *.cs[6].posY 1790m
param *.cs[6].posZ 606m
param *.numCSs 3
param *.uav[*].replacementMethod 2
param *.uav[*].weightedSumWeight 0.35
param *.missionControl.replacementSearchMethod 1
param *.numUAVs 100
param *.numCSs 3
param *.numUAVs 100
param *.*.timeStep 10s
param *.uav[*].commandPreviewCommandCount 20
param *.missionControl.missionFiles "\"missions\\\\Szenario_WB_Hotel_Gabelbach_Mission_Hotel.waypoints,missions\\\\Szenario_WB_Hotel_Gabelbach_Mission_Kickelhahn.waypoints,missions\\\\Szenario_WB_Hotel_Gabelbach_Mission_Ilmenau_Sportplatz.waypoints,missions\\\\Szenario_WB_Hotel_Gabelbach_Mission_Manebach_Mitte.waypoints,missions\\\\Szenario_WB_Hotel_Gabelbach_Mission_Manebach_Sued.waypoints,missions\\\\Szenario_WB_Hotel_Gabelbach_Hover_HoheSchlaufe.waypoints,missions\\\\Szenario_WB_Hotel_Gabelbach_Hover_Kickelhahn.waypoints,missions\\\\Szenario_WB_Hotel_Gabelbach_Hover_Gabelbachskopf.waypoints,missions\\\\Szenario_WB_Hotel_Gabelbach_Hover_Dachskopf.waypoints\""
param *.uav[0].startX 3537m
param *.uav[0].startY 965m
param *.uav[0].startZ 539m
param *.uav[1].startX 312m
param *.uav[1].startY 1262m
param *.uav[1].startZ 540m
param *.uav[2].startX 2185m
param *.uav[2].startY 3026m
param *.uav[2].startZ 778m
param *.uav[3].startX 3537m
param *.uav[3].startY 965m
param *.uav[3].startZ 539m
param *.uav[4].startX 312m
param *.uav[4].startY 1262m
param *.uav[4].startZ 540m
param *.uav[5].startX 2185m
param *.uav[5].startY 3026m
param *.uav[5].startZ 778m
param *.uav[6].startX 3537m
param *.uav[6].startY 965m
param *.uav[6].startZ 539m
param *.uav[7].startX 312m
param *.uav[7].startY 1262m
param *.uav[7].startZ 540m
param *.uav[8].startX 2185m
param *.uav[8].startY 3026m
param *.uav[8].startZ 778m
param *.uav[9].startX 3537m
param *.uav[9].startY 965m
param *.uav[9].startZ 539m
param *.uav[10].startX 3537m
param *.uav[10].startY 965m
param *.uav[10].startZ 539m
param *.uav[11].startX 312m
param *.uav[11].startY 1262m
param *.uav[11].startZ 540m
param *.uav[12].startX 2185m
param *.uav[12].startY 3026m
param *.uav[12].startZ 778m
param *.uav[13].startX 3537m
param *.uav[13].startY 965m
param *.uav[13].startZ 539m
param *.uav[14].startX 312m
param *.uav[14].startY 1262m
param *.uav[14].startZ 540m
param *.uav[15].startX 2185m
param *.uav[15].startY 3026m
param *.uav[15].startZ 778m
param *.uav[16].startX 3537m
param *.uav[16].startY 965m
param *.uav[16].startZ 539m
param *.uav[17].startX 312m
param *.uav[17].startY 1262m
param *.uav[17].startZ 540m
param *.uav[18].startX 2185m
param *.uav[18].startY 3026m
param *.uav[18].startZ 778m
param *.uav[19].startX 3537m
param *.uav[19].startY 965m
param *.uav[19].startZ 539m
param *.uav[20].startX 3537m
param *.uav[20].startY 965m
param *.uav[20].startZ 539m
param *.uav[21].startX 312m
param *.uav[21].startY 1262m
param *.uav[21].startZ 540m
param *.uav[22].startX 2185m
param *.uav[22].startY 3026m
param *.uav[22].startZ 778m
param *.uav[23].startX 3537m
param *.uav[23].startY 965m
param *.uav[23].startZ 539m
param *.uav[24].startX 312m
param *.uav[24].startY 1262m
param *.uav[24].startZ 540m
param *.uav[25].startX 2185m
param *.uav[25].startY 3026m
param *.uav[25].startZ 778m
param *.uav[26].startX 3537m
param *.uav[26].startY 965m
param *.uav[26].startZ 539m
param *.uav[27].startX 312m
param *.uav[27].startY 1262m
param *.uav[27].startZ 540m
param *.uav[28].startX 2185m
param *.uav[28].startY 3026m
param *.uav[28].startZ 778m
param *.uav[29].startX 3537m
param *.uav[29].startY 965m
param *.uav[29].startZ 539m
param *.uav[30].startX 3537m
param *.uav[30].startY 965m
param *.uav[30].startZ 539m
param *.uav[31].startX 312m
param *.uav[31].startY 1262m
param *.uav[31].startZ 540m
param *.uav[32].startX 2185m
param *.uav[32].startY 3026m
param *.uav[32].startZ 778m
param *.uav[33].startX 3537m
param *.uav[33].startY 965m
param *.uav[33].startZ 539m
param *.uav[34].startX 312m
param *.uav[34].startY 1262m
param *.uav[34].startZ 540m
param *.uav[35].startX 2185m
param *.uav[35].startY 3026m
param *.uav[35].startZ 778m
param *.uav[36].startX 3537m
param *.uav[36].startY 965m
param *.uav[36].startZ 539m
param *.uav[37].startX 312m
param *.uav[37].startY 1262m
param *.uav[37].startZ 540m
param *.uav[38].startX 2185m
param *.uav[38].startY 3026m
param *.uav[38].startZ 778m
param *.uav[39].startX 3537m
param *.uav[39].startY 965m
param *.uav[39].startZ 539m
param *.uav[40].startX 3537m
param *.uav[40].startY 965m
param *.uav[40].startZ 539m
param *.uav[41].startX 312m
param *.uav[41].startY 1262m
param *.uav[41].startZ 540m
param *.uav[42].startX 2185m
param *.uav[42].startY 3026m
param *.uav[42].startZ 778m
param *.uav[43].startX 3537m
param *.uav[43].startY 965m
param *.uav[43].startZ 539m
param *.uav[44].startX 312m
param *.uav[44].startY 1262m
param *.uav[44].startZ 540m
param *.uav[45].startX 2185m
param *.uav[45].startY 3026m
param *.uav[45].startZ 778m
param *.uav[46].startX 3537m
param *.uav[46].startY 965m
param *.uav[46].startZ 539m
param *.uav[47].startX 312m
param *.uav[47].startY 1262m
param *.uav[47].startZ 540m
param *.uav[48].startX 2185m
param *.uav[48].startY 3026m
param *.uav[48].startZ 778m
param *.uav[49].startX 3537m
param *.uav[49].startY 965m
param *.uav[49].startZ 539m
param *.uav[50].startX 3537m
param *.uav[50].startY 965m
param *.uav[50].startZ 539m
param *.uav[51].startX 312m
param *.uav[51].startY 1262m
param *.uav[51].startZ 540m
param *.uav[52].startX 2185m
param *.uav[52].startY 3026m
param *.uav[52].startZ 778m
param *.uav[53].startX 3537m
param *.uav[53].startY 965m
param *.uav[53].startZ 539m
param *.uav[54].startX 312m
param *.uav[54].startY 1262m
param *.uav[54].startZ 540m
param *.uav[55].startX 2185m
param *.uav[55].startY 3026m
param *.uav[55].startZ 778m
param *.uav[56].startX 3537m
param *.uav[56].startY 965m
param *.uav[56].startZ 539m
param *.uav[57].startX 312m
param *.uav[57].startY 1262m
param *.uav[57].startZ 540m
param *.uav[58].startX 2185m
param *.uav[58].startY 3026m
param *.uav[58].startZ 778m
param *.uav[59].startX 3537m
param *.uav[59].startY 965m
param *.uav[59].startZ 539m
param *.uav[60].startX 3537m
param *.uav[60].startY 965m
param *.uav[60].startZ 539m
param *.uav[61].startX 312m
param *.uav[61].startY 1262m
param *.uav[61].startZ 540m
param *.uav[62].startX 2185m
param *.uav[62].startY 3026m
param *.uav[62].startZ 778m
param *.uav[63].startX 3537m
param *.uav[63].startY 965m
param *.uav[63].startZ 539m
param *.uav[64].startX 312m
param *.uav[64].startY 1262m
param *.uav[64].startZ 540m
param *.uav[65].startX 2185m
param *.uav[65].startY 3026m
param *.uav[65].startZ 778m
param *.uav[66].startX 3537m
param *.uav[66].startY 965m
param *.uav[66].startZ 539m
param *.uav[67].startX 312m
param *.uav[67].startY 1262m
param *.uav[67].startZ 540m
param *.uav[68].startX 2185m
param *.uav[68].startY 3026m
param *.uav[68].startZ 778m
param *.uav[69].startX 3537m
param *.uav[69].startY 965m
param *.uav[69].startZ 539m
param *.uav[70].startX 3537m
param *.uav[70].startY 965m
param *.uav[70].startZ 539m
param *.uav[71].startX 312m
param *.uav[71].startY 1262m
param *.uav[71].startZ 540m
param *.uav[72].startX 2185m
param *.uav[72].startY 3026m
param *.uav[72].startZ 778m
param *.uav[73].startX 3537m
param *.uav[73].startY 965m
param *.uav[73].startZ 539m
param *.uav[74].startX 312m
param *.uav[74].startY 1262m
param *.uav[74].startZ 540m
param *.uav[75].startX 2185m
param *.uav[75].startY 3026m
param *.uav[75].startZ 778m
param *.uav[76].startX 3537m
param *.uav[76].startY 965m
param *.uav[76].startZ 539m
param *.uav[77].startX 312m
param *.uav[77].startY 1262m
param *.uav[77].startZ 540m
param *.uav[78].startX 2185m
param *.uav[78].startY 3026m
param *.uav[78].startZ 778m
param *.uav[79].startX 3537m
param *.uav[79].startY 965m
param *.uav[79].startZ 539m
param *.uav[80].startX 3537m
param *.uav[80].startY 965m
param *.uav[80].startZ 539m
param *.uav[81].startX 312m
param *.uav[81].startY 1262m
param *.uav[81].startZ 540m
param *.uav[82].startX 2185m
param *.uav[82].startY 3026m
param *.uav[82].startZ 778m
param *.uav[83].startX 3537m
param *.uav[83].startY 965m
param *.uav[83].startZ 539m
param *.uav[84].startX 312m
param *.uav[84].startY 1262m
param *.uav[84].startZ 540m
param *.uav[85].startX 2185m
param *.uav[85].startY 3026m
param *.uav[85].startZ 778m
param *.uav[86].startX 3537m
param *.uav[86].startY 965m
param *.uav[86].startZ 539m
param *.uav[87].startX 312m
param *.uav[87].startY 1262m
param *.uav[87].startZ 540m
param *.uav[88].startX 2185m
param *.uav[88].startY 3026m
param *.uav[88].startZ 778m
param *.uav[89].startX 3537m
param *.uav[89].startY 965m
param *.uav[89].startZ 539m
param *.uav[90].startX 3537m
param *.uav[90].startY 965m
param *.uav[90].startZ 539m
param *.uav[91].startX 312m
param *.uav[91].startY 1262m
param *.uav[91].startZ 540m
param *.uav[92].startX 2185m
param *.uav[92].startY 3026m
param *.uav[92].startZ 778m
param *.uav[93].startX 3537m
param *.uav[93].startY 965m
param *.uav[93].startZ 539m
param *.uav[94].startX 312m
param *.uav[94].startY 1262m
param *.uav[94].startZ 540m
param *.uav[95].startX 2185m
param *.uav[95].startY 3026m
param *.uav[95].startZ 778m
param *.uav[96].startX 3537m
param *.uav[96].startY 965m
param *.uav[96].startZ 539m
param *.uav[97].startX 312m
param *.uav[97].startY 1262m
param *.uav[97].startZ 540m
param *.uav[98].startX 2185m
param *.uav[98].startY 3026m
param *.uav[98].startZ 778m
param *.uav[99].startX 3537m
param *.uav[99].startY 965m
param *.uav[99].startZ 539m
param *.osgEarthScene.scene "\"boston.earth\""
param *.playgroundLatitude 42.3558
param *.playgroundLongitude -71.0677
param *.playgroundWidth 400m
param *.playgroundHeight 200m
param *.channelController.connectionColor "\"#0000FF40\""
param *.channelController.showConnections false
param *.uav[*].modelURL "\"quadrocopter.small.obj.15.scale.0,0,90.rot\""
param *.uav[*].labelColor "\"#FF7C00CC\""
param *.uav[*].label2Color "\"#FF7C00EE\""
param *.uav[*].batteryCapacity 5200mAh
param *.uav[*].batteryRemaining uav[index].batteryCapacity
param *.uav[*].predictionQuantile 0.95
param *.uav[*].replacementMethod 2
param *.uav[*].weightedSumWeight 0.5
param *.cs[*].modelURL "\"chargingstation_v1.osgt.2.scale.0,0,0.rot.0,0,-15e-1.trans\""
param *.cs[*].spotsWaiting 999
param *.cs[*].spotsCharging 999
param *.cs[*].chargeEffectivenessPercentage 100
param *.cs[*].nonLinearPhaseStartPercentage 85
param *.cs[*].chargeCurrent 6.0A
param *.cs[*].prioritizeFastCharge true
param *.missionControl.replacementSearchMethod 0
param *.*.timeStep 9s

scalar OsgEarthNet.uav[0] utilizationSecMission 760.62515258028
scalar OsgEarthNet.uav[0] utilizationSecMaintenance 202.91610409653
scalar OsgEarthNet.uav[0] utilizationSecCharge 3480
scalar OsgEarthNet.uav[0] utilizationSecIdle 254756.45774332
scalar OsgEarthNet.uav[0] utilizationEnergyMission 3596.6807861328
scalar OsgEarthNet.uav[0] utilizationEnergyMaintenance 983.25908660888
scalar OsgEarthNet.uav[0] utilizationEnergyCharge 4497.6044921875
scalar OsgEarthNet.uav[0] utilizationEnergyOverdrawMission 0
scalar OsgEarthNet.uav[0] utilizationEnergyOverdrawMaintenance 0
scalar OsgEarthNet.uav[0] utilizationCountMissions 1
scalar OsgEarthNet.uav[0] utilizationCountManeuversMission 12
scalar OsgEarthNet.uav[0] utilizationCountManeuversMaintenance 2
scalar OsgEarthNet.uav[0] utilizationCountChargeState 1
scalar OsgEarthNet.uav[0] utilizationCountOverdrawnAfterMission 0
scalar OsgEarthNet.uav[0] utilizationCountIdleState 2
scalar OsgEarthNet.uav[0] utilizationFail 0
scalar OsgEarthNet.uav[0] simulationTime 259200
scalar OsgEarthNet.uav[1] utilizationSecMission 14638.30738861
scalar OsgEarthNet.uav[1] utilizationSecMaintenance 10603.241301951
scalar OsgEarthNet.uav[1] utilizationSecCharge 97800
scalar OsgEarthNet.uav[1] utilizationSecIdle 136158.45030944
scalar OsgEarthNet.uav[1] utilizationEnergyMission 72236.312316895
scalar OsgEarthNet.uav[1] utilizationEnergyMaintenance 49406.93504715
scalar OsgEarthNet.uav[1] utilizationEnergyCharge 120335.48022461
scalar OsgEarthNet.uav[1] utilizationEnergyOverdrawMission 0
scalar OsgEarthNet.uav[1] utilizationEnergyOverdrawMaintenance 0
scalar OsgEarthNet.uav[1] utilizationCountMissions 31
scalar OsgEarthNet.uav[1] utilizationCountManeuversMission 530
scalar OsgEarthNet.uav[1] utilizationCountManeuversMaintenance 62
scalar OsgEarthNet.uav[1] utilizationCountChargeState 31
scalar OsgEarthNet.uav[1] utilizationCountOverdrawnAfterMission 0
scalar OsgEarthNet.uav[1] utilizationCountIdleState 32
scalar OsgEarthNet.uav[1] utilizationFail 0
scalar OsgEarthNet.uav[1] simulationTime 259200
scalar OsgEarthNet.uav[2] utilizationSecMission 41283.648751967
scalar OsgEarthNet.uav[2] utilizationSecMaintenance 18884.074263009
scalar OsgEarthNet.uav[2] utilizationSecCharge 196480.27298502
scalar OsgEarthNet.uav[2] utilizationSecIdle 2552.003
scalar OsgEarthNet.uav[2] utilizationEnergyMission 197507.82796478
scalar OsgEarthNet.uav[2] utilizationEnergyMaintenance 87191.946296692
scalar OsgEarthNet.uav[2] utilizationEnergyCharge 280820.04614258
scalar OsgEarthNet.uav[2] utilizationEnergyOverdrawMission 0
scalar OsgEarthNet.uav[2] utilizationEnergyOverdrawMaintenance 0
scalar OsgEarthNet.uav[2] utilizationCountMissions 62
scalar OsgEarthNet.uav[2] utilizationCountManeuversMission 1160
scalar OsgEarthNet.uav[2] utilizationCountManeuversMaintenance 124
scalar OsgEarthNet.uav[2] utilizationCountChargeState 62
scalar OsgEarthNet.uav[2] utilizationCountOverdrawnAfterMission 0
scalar OsgEarthNet.uav[2] utilizationCountIdleState 10
scalar OsgEarthNet.uav[2] utilizationFail 0
scalar OsgEarthNet.uav[2] simulationTime 259200
scalar OsgEarthNet.uav[3] utilizationSecMission 8313.952304317
scalar OsgEarthNet.uav[3] utilizationSecMaintenance 6530.9859450705
scalar OsgEarthNet.uav[3] utilizationSecCharge 53909.513841355
scalar OsgEarthNet.uav[3] utilizationSecIdle 190445.54690926
scalar OsgEarthNet.uav[3] utilizationEnergyMission 41584.983856201
scalar OsgEarthNet.uav[3] utilizationEnergyMaintenance 31347.112945557
scalar OsgEarthNet.uav[3] utilizationEnergyCharge 70093.102661133
scalar OsgEarthNet.uav[3] utilizationEnergyOverdrawMission 0
scalar OsgEarthNet.uav[3] utilizationEnergyOverdrawMaintenance 0
scalar OsgEarthNet.uav[3] utilizationCountMissions 16
scalar OsgEarthNet.uav[3] utilizationCountManeuversMission 318
scalar OsgEarthNet.uav[3] utilizationCountManeuversMaintenance 32
scalar OsgEarthNet.uav[3] utilizationCountChargeState 16
scalar OsgEarthNet.uav[3] utilizationCountOverdrawnAfterMission 0
scalar OsgEarthNet.uav[3] utilizationCountIdleState 16
scalar OsgEarthNet.uav[3] utilizationFail 0
scalar OsgEarthNet.uav[3] simulationTime 259200
scalar OsgEarthNet.uav[4] utilizationSecMission 10361.54369076
scalar OsgEarthNet.uav[4] utilizationSecMaintenance 6626.4433092401
scalar OsgEarthNet.uav[4] utilizationSecCharge 61620
scalar OsgEarthNet.uav[4] utilizationSecIdle 180592.012
scalar OsgEarthNet.uav[4] utilizationEnergyMission 52099.599620819
scalar OsgEarthNet.uav[4] utilizationEnergyMaintenance 32037.08256468
scalar OsgEarthNet.uav[4] utilizationEnergyCharge 78583.932128906
scalar OsgEarthNet.uav[4] utilizationEnergyOverdrawMission 0
scalar OsgEarthNet.uav[4] utilizationEnergyOverdrawMaintenance 0
scalar OsgEarthNet.uav[4] utilizationCountMissions 19
scalar OsgEarthNet.uav[4] utilizationCountManeuversMission 392
scalar OsgEarthNet.uav[4] utilizationCountManeuversMaintenance 38
scalar OsgEarthNet.uav[4] utilizationCountChargeState 18
scalar OsgEarthNet.uav[4] utilizationCountOverdrawnAfterMission 0
scalar OsgEarthNet.uav[4] utilizationCountIdleState 19
scalar OsgEarthNet.uav[4] utilizationFail 0
scalar OsgEarthNet.uav[4] simulationTime 259200
scalar OsgEarthNet.uav[5] utilizationSecMission 41755.870015095
scalar OsgEarthNet.uav[5] utilizationSecMaintenance 18257.963009898
scalar OsgEarthNet.uav[5] utilizationSecCharge 195716.32916097
scalar OsgEarthNet.uav[5] utilizationSecIdle 3469.83681404
scalar OsgEarthNet.uav[5] utilizationEnergyMission 197801.38558578
scalar OsgEarthNet.uav[5] utilizationEnergyMaintenance 83534.643947601
scalar OsgEarthNet.uav[5] utilizationEnergyCharge 279897.8996582
scalar OsgEarthNet.uav[5] utilizationEnergyOverdrawMission 0
scalar OsgEarthNet.uav[5] utilizationEnergyOverdrawMaintenance 0
scalar OsgEarthNet.uav[5] utilizationCountMissions 61
scalar OsgEarthNet.uav[5] utilizationCountManeuversMission 1104
scalar OsgEarthNet.uav[5] utilizationCountManeuversMaintenance 122
scalar OsgEarthNet.uav[5] utilizationCountChargeState 61
scalar OsgEarthNet.uav[5] utilizationCountOverdrawnAfterMission 0
scalar OsgEarthNet.uav[5] utilizationCountIdleState 6
scalar OsgEarthNet.uav[5] utilizationFail 0
scalar OsgEarthNet.uav[5] simulationTime 259200
scalar OsgEarthNet.uav[6] utilizationSecMission 6724.376068062
scalar OsgEarthNet.uav[6] utilizationSecMaintenance 3141.165155309
scalar OsgEarthNet.uav[6] utilizationSecCharge 36250
scalar OsgEarthNet.uav[6] utilizationSecIdle 213084.45777663
scalar OsgEarthNet.uav[6] utilizationEnergyMission 31988.159599304
scalar OsgEarthNet.uav[6] utilizationEnergyMaintenance 15067.355838776
scalar OsgEarthNet.uav[6] utilizationEnergyCharge 47440.964355469
scalar OsgEarthNet.uav[6] utilizationEnergyOverdrawMission 0
scalar OsgEarthNet.uav[6] utilizationEnergyOverdrawMaintenance 0
scalar OsgEarthNet.uav[6] utilizationCountMissions 10
scalar OsgEarthNet.uav[6] utilizationCountManeuversMission 154
scalar OsgEarthNet.uav[6] utilizationCountManeuversMaintenance 20
scalar OsgEarthNet.uav[6] utilizationCountChargeState 10
scalar OsgEarthNet.uav[6] utilizationCountOverdrawnAfterMission 0
scalar OsgEarthNet.uav[6] utilizationCountIdleState 11
scalar OsgEarthNet.uav[6] utilizationFail 0
scalar OsgEarthNet.uav[6] simulationTime 259200
scalar OsgEarthNet.uav[7] utilizationSecMission 15233.541816637
scalar OsgEarthNet.uav[7] utilizationSecMaintenance 9943.5262401992
scalar OsgEarthNet.uav[7] utilizationSecCharge 96530
scalar OsgEarthNet.uav[7] utilizationSecIdle 137492.93094316
scalar OsgEarthNet.uav[7] utilizationEnergyMission 76014.615486145
scalar OsgEarthNet.uav[7] utilizationEnergyMaintenance 47110.359401703
scalar OsgEarthNet.uav[7] utilizationEnergyCharge 121613.72412109
scalar OsgEarthNet.uav[7] utilizationEnergyOverdrawMission 0
scalar OsgEarthNet.uav[7] utilizationEnergyOverdrawMaintenance 0
scalar OsgEarthNet.uav[7] utilizationCountMissions 29
scalar OsgEarthNet.uav[7] utilizationCountManeuversMission 524
scalar OsgEarthNet.uav[7] utilizationCountManeuversMaintenance 58
scalar OsgEarthNet.uav[7] utilizationCountChargeState 29
scalar OsgEarthNet.uav[7] utilizationCountOverdrawnAfterMission 0
scalar OsgEarthNet.uav[7] utilizationCountIdleState 30
scalar OsgEarthNet.uav[7] utilizationFail 0
scalar OsgEarthNet.uav[7] simulationTime 259200
scalar OsgEarthNet.uav[8] utilizationSecMission 42077.311140618
scalar OsgEarthNet.uav[8] utilizationSecMaintenance 17905.057636797
scalar OsgEarthNet.uav[8] utilizationSecCharge 197120.17995855
scalar OsgEarthNet.uav[8] utilizationSecIdle 2097.4502640309
scalar OsgEarthNet.uav[8] utilizationEnergyMission 203857.95871735
scalar OsgEarthNet.uav[8] utilizationEnergyMaintenance 81772.604869843
scalar OsgEarthNet.uav[8] utilizationEnergyCharge 281630.17871094
scalar OsgEarthNet.uav[8] utilizationEnergyOverdrawMission 0
scalar OsgEarthNet.uav[8] utilizationEnergyOverdrawMaintenance 0
scalar OsgEarthNet.uav[8] utilizationCountMissions 62
scalar OsgEarthNet.uav[8] utilizationCountManeuversMission 1308
scalar OsgEarthNet.uav[8] utilizationCountManeuversMaintenance 124
scalar OsgEarthNet.uav[8] utilizationCountChargeState 62
scalar OsgEarthNet.uav[8] utilizationCountOverdrawnAfterMission 0
scalar OsgEarthNet.uav[8] utilizationCountIdleState 12
scalar OsgEarthNet.uav[8] utilizationFail 0
scalar OsgEarthNet.uav[8] simulationTime 259200
scalar OsgEarthNet.uav[9] utilizationSecMission 7983.1257629014
scalar OsgEarthNet.uav[9] utilizationSecMaintenance 5079.8824877157
scalar OsgEarthNet.uav[9] utilizationSecCharge 49170
scalar OsgEarthNet.uav[9] utilizationSecIdle 196966.99074938
scalar OsgEarthNet.uav[9] utilizationEnergyMission 38772.41355896
scalar OsgEarthNet.uav[9] utilizationEnergyMaintenance 23841.920265198
scalar OsgEarthNet.uav[9] utilizationEnergyCharge 63232.059082031
scalar OsgEarthNet.uav[9] utilizationEnergyOverdrawMission 0
scalar OsgEarthNet.uav[9] utilizationEnergyOverdrawMaintenance 0
scalar OsgEarthNet.uav[9] utilizationCountMissions 14
scalar OsgEarthNet.uav[9] utilizationCountManeuversMission 269
scalar OsgEarthNet.uav[9] utilizationCountManeuversMaintenance 28
scalar OsgEarthNet.uav[9] utilizationCountChargeState 14
scalar OsgEarthNet.uav[9] utilizationCountOverdrawnAfterMission 0
scalar OsgEarthNet.uav[9] utilizationCountIdleState 15
scalar OsgEarthNet.uav[9] utilizationFail 0
scalar OsgEarthNet.uav[9] simulationTime 259200
scalar OsgEarthNet.uav[10] utilizationSecMission 8281.8754577409
scalar OsgEarthNet.uav[10] utilizationSecMaintenance 6483.2369748416
scalar OsgEarthNet.uav[10] utilizationSecCharge 54752.863567418
scalar OsgEarthNet.uav[10] utilizationSecIdle 189682.023
scalar OsgEarthNet.uav[10] utilizationEnergyMission 41395.754894257
scalar OsgEarthNet.uav[10] utilizationEnergyMaintenance 30833.630737305
scalar OsgEarthNet.uav[10] utilizationEnergyCharge 71345.159667969
scalar OsgEarthNet.uav[10] utilizationEnergyOverdrawMission 0
scalar OsgEarthNet.uav[10] utilizationEnergyOverdrawMaintenance 0
scalar OsgEarthNet.uav[10] utilizationCountMissions 16
scalar OsgEarthNet.uav[10] utilizationCountManeuversMission 336
scalar OsgEarthNet.uav[10] utilizationCountManeuversMaintenance 32
scalar OsgEarthNet.uav[10] utilizationCountChargeState 16
scalar OsgEarthNet.uav[10] utilizationCountOverdrawnAfterMission 0
scalar OsgEarthNet.uav[10] utilizationCountIdleState 16
scalar OsgEarthNet.uav[10] utilizationFail 0
scalar OsgEarthNet.uav[10] simulationTime 259200
scalar OsgEarthNet.uav[11] utilizationSecMission 10558.100588747
scalar OsgEarthNet.uav[11] utilizationSecMaintenance 7382.5200313956
scalar OsgEarthNet.uav[11] utilizationSecCharge 70750
scalar OsgEarthNet.uav[11] utilizationSecIdle 170509.37837986
scalar OsgEarthNet.uav[11] utilizationEnergyMission 51281.181106567
scalar OsgEarthNet.uav[11] utilizationEnergyMaintenance 34956.611427307
scalar OsgEarthNet.uav[11] utilizationEnergyCharge 87585.050048828
scalar OsgEarthNet.uav[11] utilizationEnergyOverdrawMission 0
scalar OsgEarthNet.uav[11] utilizationEnergyOverdrawMaintenance 0
scalar OsgEarthNet.uav[11] utilizationCountMissions 22
scalar OsgEarthNet.uav[11] utilizationCountManeuversMission 349
scalar OsgEarthNet.uav[11] utilizationCountManeuversMaintenance 44
scalar OsgEarthNet.uav[11] utilizationCountChargeState 22
scalar OsgEarthNet.uav[11] utilizationCountOverdrawnAfterMission 0
scalar OsgEarthNet.uav[11] utilizationCountIdleState 23
scalar OsgEarthNet.uav[11] utilizationFail 0
scalar OsgEarthNet.uav[11] simulationTime 259200
scalar OsgEarthNet.uav[12] utilizationSecMission 41274.197811185
scalar OsgEarthNet.uav[12] utilizationSecMaintenance 19048.233841649
scalar OsgEarthNet.uav[12] utilizationSecCharge 197106.11438845
scalar OsgEarthNet.uav[12] utilizationSecIdle 1771.4529587171
scalar OsgEarthNet.uav[12] utilizationEnergyMission 198024.91833115
scalar OsgEarthNet.uav[12] utilizationEnergyMaintenance 87538.568374634
scalar OsgEarthNet.uav[12] utilizationEnergyCharge 282689.36624146
scalar OsgEarthNet.uav[12] utilizationEnergyOverdrawMission 0
scalar OsgEarthNet.uav[12] utilizationEnergyOverdrawMaintenance 0
scalar OsgEarthNet.uav[12] utilizationCountMissions 63
scalar OsgEarthNet.uav[12] utilizationCountManeuversMission 1212
scalar OsgEarthNet.uav[12] utilizationCountManeuversMaintenance 126
scalar OsgEarthNet.uav[12] utilizationCountChargeState 63
scalar OsgEarthNet.uav[12] utilizationCountOverdrawnAfterMission 0
scalar OsgEarthNet.uav[12] utilizationCountIdleState 5
scalar OsgEarthNet.uav[12] utilizationFail 0
scalar OsgEarthNet.uav[12] simulationTime 259200
scalar OsgEarthNet.uav[13] utilizationSecMission 8064.376068062
scalar OsgEarthNet.uav[13] utilizationSecMaintenance 4211.3471116162
scalar OsgEarthNet.uav[13] utilizationSecCharge 43553.705385067
scalar OsgEarthNet.uav[13] utilizationSecIdle 203370.57043525
scalar OsgEarthNet.uav[13] utilizationEnergyMission 39440.229328156
scalar OsgEarthNet.uav[13] utilizationEnergyMaintenance 20161.80663681
scalar OsgEarthNet.uav[13] utilizationEnergyCharge 56912.004394531
scalar OsgEarthNet.uav[13] utilizationEnergyOverdrawMission 0
scalar OsgEarthNet.uav[13] utilizationEnergyOverdrawMaintenance 0
scalar OsgEarthNet.uav[13] utilizationCountMissions 13
scalar OsgEarthNet.uav[13] utilizationCountManeuversMission 221
scalar OsgEarthNet.uav[13] utilizationCountManeuversMaintenance 26
scalar OsgEarthNet.uav[13] utilizationCountChargeState 13
scalar OsgEarthNet.uav[13] utilizationCountOverdrawnAfterMission 0
scalar OsgEarthNet.uav[13] utilizationCountIdleState 13
scalar OsgEarthNet.uav[13] utilizationFail 0
scalar OsgEarthNet.uav[13] simulationTime 259200
scalar OsgEarthNet.uav[14] utilizationSecMission 11388.555023865
scalar OsgEarthNet.uav[14] utilizationSecMaintenance 8177.0799561966
scalar OsgEarthNet.uav[14] utilizationSecCharge 76570
scalar OsgEarthNet.uav[14] utilizationSecIdle 163064.36401994
scalar OsgEarthNet.uav[14] utilizationEnergyMission 55762.792354584
scalar OsgEarthNet.uav[14] utilizationEnergyMaintenance 38428.256603241
scalar OsgEarthNet.uav[14] utilizationEnergyCharge 94449.909912109
scalar OsgEarthNet.uav[14] utilizationEnergyOverdrawMission 0
scalar OsgEarthNet.uav[14] utilizationEnergyOverdrawMaintenance 0
scalar OsgEarthNet.uav[14] utilizationCountMissions 24
scalar OsgEarthNet.uav[14] utilizationCountManeuversMission 405
scalar OsgEarthNet.uav[14] utilizationCountManeuversMaintenance 48
scalar OsgEarthNet.uav[14] utilizationCountChargeState 24
scalar OsgEarthNet.uav[14] utilizationCountOverdrawnAfterMission 0
scalar OsgEarthNet.uav[14] utilizationCountIdleState 25
scalar OsgEarthNet.uav[14] utilizationFail 0
scalar OsgEarthNet.uav[14] simulationTime 259200
scalar OsgEarthNet.uav[15] utilizationSecMission 41779.249352903
scalar OsgEarthNet.uav[15] utilizationSecMaintenance 18024.408783394
scalar OsgEarthNet.uav[15] utilizationSecCharge 197044.66781212
scalar OsgEarthNet.uav[15] utilizationSecIdle 2351.6730515863
scalar OsgEarthNet.uav[15] utilizationEnergyMission 202028.0147438
scalar OsgEarthNet.uav[15] utilizationEnergyMaintenance 82967.332351685
scalar OsgEarthNet.uav[15] utilizationEnergyCharge 281813.52575684
scalar OsgEarthNet.uav[15] utilizationEnergyOverdrawMission 0
scalar OsgEarthNet.uav[15] utilizationEnergyOverdrawMaintenance 0
scalar OsgEarthNet.uav[15] utilizationCountMissions 62
scalar OsgEarthNet.uav[15] utilizationCountManeuversMission 1226
scalar OsgEarthNet.uav[15] utilizationCountManeuversMaintenance 124
scalar OsgEarthNet.uav[15] utilizationCountChargeState 62
scalar OsgEarthNet.uav[15] utilizationCountOverdrawnAfterMission 0
scalar OsgEarthNet.uav[15] utilizationCountIdleState 6
scalar OsgEarthNet.uav[15] utilizationFail 0
scalar OsgEarthNet.uav[15] simulationTime 259200
scalar OsgEarthNet.uav[16] utilizationSecMission 7103.1257629014
scalar OsgEarthNet.uav[16] utilizationSecMaintenance 4185.0190340164
scalar OsgEarthNet.uav[16] utilizationSecCharge 42110
scalar OsgEarthNet.uav[16] utilizationSecIdle 205801.85420308
scalar OsgEarthNet.uav[16] utilizationEnergyMission 34558.097015381
scalar OsgEarthNet.uav[16] utilizationEnergyMaintenance 19818.722671509
scalar OsgEarthNet.uav[16] utilizationEnergyCharge 54141.096191406
scalar OsgEarthNet.uav[16] utilizationEnergyOverdrawMission 0
scalar OsgEarthNet.uav[16] utilizationEnergyOverdrawMaintenance 0
scalar OsgEarthNet.uav[16] utilizationCountMissions 12
scalar OsgEarthNet.uav[16] utilizationCountManeuversMission 225
scalar OsgEarthNet.uav[16] utilizationCountManeuversMaintenance 24
scalar OsgEarthNet.uav[16] utilizationCountChargeState 12
scalar OsgEarthNet.uav[16] utilizationCountOverdrawnAfterMission 0
scalar OsgEarthNet.uav[16] utilizationCountIdleState 13
scalar OsgEarthNet.uav[16] utilizationFail 0
scalar OsgEarthNet.uav[16] simulationTime 259200
scalar OsgEarthNet.uav[17] utilizationSecMission 12095.854827615
scalar OsgEarthNet.uav[17] utilizationSecMaintenance 9002.1719406051
scalar OsgEarthNet.uav[17] utilizationSecCharge 82760
scalar OsgEarthNet.uav[17] utilizationSecIdle 155341.97223178
scalar OsgEarthNet.uav[17] utilizationEnergyMission 60639.406806946
scalar OsgEarthNet.uav[17] utilizationEnergyMaintenance 42759.703777313
scalar OsgEarthNet.uav[17] utilizationEnergyCharge 103739.86303711
scalar OsgEarthNet.uav[17] utilizationEnergyOverdrawMission 0
scalar OsgEarthNet.uav[17] utilizationEnergyOverdrawMaintenance 0
scalar OsgEarthNet.uav[17] utilizationCountMissions 25
scalar OsgEarthNet.uav[17] utilizationCountManeuversMission 500
scalar OsgEarthNet.uav[17] utilizationCountManeuversMaintenance 50
scalar OsgEarthNet.uav[17] utilizationCountChargeState 25
scalar OsgEarthNet.uav[17] utilizationCountOverdrawnAfterMission 0
scalar OsgEarthNet.uav[17] utilizationCountIdleState 26
scalar OsgEarthNet.uav[17] utilizationFail 0
scalar OsgEarthNet.uav[17] simulationTime 259200
scalar OsgEarthNet.uav[18] utilizationSecMission 5903.5360538581
scalar OsgEarthNet.uav[18] utilizationSecMaintenance 4340.3800874792
scalar OsgEarthNet.uav[18] utilizationSecCharge 38300
scalar OsgEarthNet.uav[18] utilizationSecIdle 210656.08285866
scalar OsgEarthNet.uav[18] utilizationEnergyMission 28592.150539398
scalar OsgEarthNet.uav[18] utilizationEnergyMaintenance 20297.826309204
scalar OsgEarthNet.uav[18] utilizationEnergyCharge 49334.828125
scalar OsgEarthNet.uav[18] utilizationEnergyOverdrawMission 0
scalar OsgEarthNet.uav[18] utilizationEnergyOverdrawMaintenance 0
scalar OsgEarthNet.uav[18] utilizationCountMissions 11
scalar OsgEarthNet.uav[18] utilizationCountManeuversMission 222
scalar OsgEarthNet.uav[18] utilizationCountManeuversMaintenance 22
scalar OsgEarthNet.uav[18] utilizationCountChargeState 11
scalar OsgEarthNet.uav[18] utilizationCountOverdrawnAfterMission 0
scalar OsgEarthNet.uav[18] utilizationCountIdleState 12
scalar OsgEarthNet.uav[18] utilizationFail 0
scalar OsgEarthNet.uav[18] simulationTime 259200
scalar OsgEarthNet.uav[19] utilizationSecMission 7702.5006103211
scalar OsgEarthNet.uav[19] utilizationSecMaintenance 5344.1593249714
scalar OsgEarthNet.uav[19] utilizationSecCharge 48556.189004561
scalar OsgEarthNet.uav[19] utilizationSecIdle 197597.15006015
scalar OsgEarthNet.uav[19] utilizationEnergyMission 37863.164787292
scalar OsgEarthNet.uav[19] utilizationEnergyMaintenance 25250.69096756
scalar OsgEarthNet.uav[19] utilizationEnergyCharge 63235.353515625
scalar OsgEarthNet.uav[19] utilizationEnergyOverdrawMission 0
scalar OsgEarthNet.uav[19] utilizationEnergyOverdrawMaintenance 0
scalar OsgEarthNet.uav[19] utilizationCountMissions 14
scalar OsgEarthNet.uav[19] utilizationCountManeuversMission 281
scalar OsgEarthNet.uav[19] utilizationCountManeuversMaintenance 28
scalar OsgEarthNet.uav[19] utilizationCountChargeState 14
scalar OsgEarthNet.uav[19] utilizationCountOverdrawnAfterMission 0
scalar OsgEarthNet.uav[19] utilizationCountIdleState 14
scalar OsgEarthNet.uav[19] utilizationFail 0
scalar OsgEarthNet.uav[19] simulationTime 259200
scalar OsgEarthNet.uav[20] utilizationSecMission 9774.0089542322
scalar OsgEarthNet.uav[20] utilizationSecMaintenance 6396.9621799084
scalar OsgEarthNet.uav[20] utilizationSecCharge 60390
scalar OsgEarthNet.uav[20] utilizationSecIdle 182639.02786586
scalar OsgEarthNet.uav[20] utilizationEnergyMission 48156.230606079
scalar OsgEarthNet.uav[20] utilizationEnergyMaintenance 30307.13022995
scalar OsgEarthNet.uav[20] utilizationEnergyCharge 78193.088378906
scalar OsgEarthNet.uav[20] utilizationEnergyOverdrawMission 0
scalar OsgEarthNet.uav[20] utilizationEnergyOverdrawMaintenance 0
scalar OsgEarthNet.uav[20] utilizationCountMissions 17
scalar OsgEarthNet.uav[20] utilizationCountManeuversMission 328
scalar OsgEarthNet.uav[20] utilizationCountManeuversMaintenance 34
scalar OsgEarthNet.uav[20] utilizationCountChargeState 17
scalar OsgEarthNet.uav[20] utilizationCountOverdrawnAfterMission 0
scalar OsgEarthNet.uav[20] utilizationCountIdleState 18
scalar OsgEarthNet.uav[20] utilizationFail 0
scalar OsgEarthNet.uav[20] simulationTime 259200
scalar OsgEarthNet.uav[21] utilizationSecMission 13657.480759553
scalar OsgEarthNet.uav[21] utilizationSecMaintenance 8980.5042404469
scalar OsgEarthNet.uav[21] utilizationSecCharge 86690
scalar OsgEarthNet.uav[21] utilizationSecIdle 149872.014
scalar OsgEarthNet.uav[21] utilizationEnergyMission 64986.550639849
scalar OsgEarthNet.uav[21] utilizationEnergyMaintenance 42113.254611969
scalar OsgEarthNet.uav[21] utilizationEnergyCharge 107503.56762695
scalar OsgEarthNet.uav[21] utilizationEnergyOverdrawMission 0
scalar OsgEarthNet.uav[21] utilizationEnergyOverdrawMaintenance 0
scalar OsgEarthNet.uav[21] utilizationCountMissions 27
scalar OsgEarthNet.uav[21] utilizationCountManeuversMission 406
scalar OsgEarthNet.uav[21] utilizationCountManeuversMaintenance 55
scalar OsgEarthNet.uav[21] utilizationCountChargeState 27
scalar OsgEarthNet.uav[21] utilizationCountOverdrawnAfterMission 0
scalar OsgEarthNet.uav[21] utilizationCountIdleState 28
scalar OsgEarthNet.uav[21] utilizationFail 0
scalar OsgEarthNet.uav[21] simulationTime 259200
scalar OsgEarthNet.uav[22] utilizationSecMission 41008.362535695
scalar OsgEarthNet.uav[22] utilizationSecMaintenance 18289.630464305
scalar OsgEarthNet.uav[22] utilizationSecCharge 196090
scalar OsgEarthNet.uav[22] utilizationSecIdle 3812.006
scalar OsgEarthNet.uav[22] utilizationEnergyMission 200329.60496979
scalar OsgEarthNet.uav[22] utilizationEnergyMaintenance 83925.642421722
scalar OsgEarthNet.uav[22] utilizationEnergyCharge 279737.50976562
scalar OsgEarthNet.uav[22] utilizationEnergyOverdrawMission 0
scalar OsgEarthNet.uav[22] utilizationEnergyOverdrawMaintenance 0
scalar OsgEarthNet.uav[22] utilizationCountMissions 61
scalar OsgEarthNet.uav[22] utilizationCountManeuversMission 1256
scalar OsgEarthNet.uav[22] utilizationCountManeuversMaintenance 123
scalar OsgEarthNet.uav[22] utilizationCountChargeState 61
scalar OsgEarthNet.uav[22] utilizationCountOverdrawnAfterMission 0
scalar OsgEarthNet.uav[22] utilizationCountIdleState 9
scalar OsgEarthNet.uav[22] utilizationFail 0
scalar OsgEarthNet.uav[22] simulationTime 259200
scalar OsgEarthNet.uav[23] utilizationSecMission 13377.243792213
scalar OsgEarthNet.uav[23] utilizationSecMaintenance 6640.0126023663
scalar OsgEarthNet.uav[23] utilizationSecCharge 73720
scalar OsgEarthNet.uav[23] utilizationSecIdle 165462.74260542
scalar OsgEarthNet.uav[23] utilizationEnergyMission 64262.601722717
scalar OsgEarthNet.uav[23] utilizationEnergyMaintenance 31359.699764252
scalar OsgEarthNet.uav[23] utilizationEnergyCharge 95163.859375
scalar OsgEarthNet.uav[23] utilizationEnergyOverdrawMission 0
scalar OsgEarthNet.uav[23] utilizationEnergyOverdrawMaintenance 0
scalar OsgEarthNet.uav[23] utilizationCountMissions 21
scalar OsgEarthNet.uav[23] utilizationCountManeuversMission 361
scalar OsgEarthNet.uav[23] utilizationCountManeuversMaintenance 42
scalar OsgEarthNet.uav[23] utilizationCountChargeState 21
scalar OsgEarthNet.uav[23] utilizationCountOverdrawnAfterMission 0
scalar OsgEarthNet.uav[23] utilizationCountIdleState 22
scalar OsgEarthNet.uav[23] utilizationFail 0
scalar OsgEarthNet.uav[23] simulationTime 259200
scalar OsgEarthNet.uav[24] utilizationSecMission 14919.548119345
scalar OsgEarthNet.uav[24] utilizationSecMaintenance 9922.0972777762
scalar OsgEarthNet.uav[24] utilizationSecCharge 93860
scalar OsgEarthNet.uav[24] utilizationSecIdle 140498.35360288
scalar OsgEarthNet.uav[24] utilizationEnergyMission 73706.240661359
scalar OsgEarthNet.uav[24] utilizationEnergyMaintenance 46909.373897552
scalar OsgEarthNet.uav[24] utilizationEnergyCharge 118422.24047852
scalar OsgEarthNet.uav[24] utilizationEnergyOverdrawMission 0
scalar OsgEarthNet.uav[24] utilizationEnergyOverdrawMaintenance 0
scalar OsgEarthNet.uav[24] utilizationCountMissions 28
scalar OsgEarthNet.uav[24] utilizationCountManeuversMission 539
scalar OsgEarthNet.uav[24] utilizationCountManeuversMaintenance 57
scalar OsgEarthNet.uav[24] utilizationCountChargeState 28
scalar OsgEarthNet.uav[24] utilizationCountOverdrawnAfterMission 0
scalar OsgEarthNet.uav[24] utilizationCountIdleState 29
scalar OsgEarthNet.uav[24] utilizationFail 0
scalar OsgEarthNet.uav[24] simulationTime 259200
scalar OsgEarthNet.uav[25] utilizationSecMission 35716.446072786
scalar OsgEarthNet.uav[25] utilizationSecMaintenance 16890.025865143
scalar OsgEarthNet.uav[25] utilizationSecCharge 177911.52706207
scalar OsgEarthNet.uav[25] utilizationSecIdle 28682
scalar OsgEarthNet.uav[25] utilizationEnergyMission 174812.04571915
scalar OsgEarthNet.uav[25] utilizationEnergyMaintenance 77613.858505249
scalar OsgEarthNet.uav[25] utilizationEnergyCharge 249482.99145508
scalar OsgEarthNet.uav[25] utilizationEnergyOverdrawMission 0
scalar OsgEarthNet.uav[25] utilizationEnergyOverdrawMaintenance 0
scalar OsgEarthNet.uav[25] utilizationCountMissions 56
scalar OsgEarthNet.uav[25] utilizationCountManeuversMission 1139
scalar OsgEarthNet.uav[25] utilizationCountManeuversMaintenance 112
scalar OsgEarthNet.uav[25] utilizationCountChargeState 56
scalar OsgEarthNet.uav[25] utilizationCountOverdrawnAfterMission 0
scalar OsgEarthNet.uav[25] utilizationCountIdleState 13
scalar OsgEarthNet.uav[25] utilizationFail 0
scalar OsgEarthNet.uav[25] simulationTime 259200
scalar OsgEarthNet.uav[26] utilizationSecMission 13136.102562131
scalar OsgEarthNet.uav[26] utilizationSecMaintenance 7330.5378440183
scalar OsgEarthNet.uav[26] utilizationSecCharge 76800
scalar OsgEarthNet.uav[26] utilizationSecIdle 161933.35859385
scalar OsgEarthNet.uav[26] utilizationEnergyMission 64314.192935944
scalar OsgEarthNet.uav[26] utilizationEnergyMaintenance 34840.821979523
scalar OsgEarthNet.uav[26] utilizationEnergyCharge 98609.718261719
scalar OsgEarthNet.uav[26] utilizationEnergyOverdrawMission 0
scalar OsgEarthNet.uav[26] utilizationEnergyOverdrawMaintenance 0
scalar OsgEarthNet.uav[26] utilizationCountMissions 22
scalar OsgEarthNet.uav[26] utilizationCountManeuversMission 384
scalar OsgEarthNet.uav[26] utilizationCountManeuversMaintenance 44
scalar OsgEarthNet.uav[26] utilizationCountChargeState 22
scalar OsgEarthNet.uav[26] utilizationCountOverdrawnAfterMission 0
scalar OsgEarthNet.uav[26] utilizationCountIdleState 23
scalar OsgEarthNet.uav[26] utilizationFail 0
scalar OsgEarthNet.uav[26] simulationTime 259200
scalar OsgEarthNet.uav[27] utilizationSecMission 38932.146773606
scalar OsgEarthNet.uav[27] utilizationSecMaintenance 17263.112379249
scalar OsgEarthNet.uav[27] utilizationSecCharge 188442.73984714
scalar OsgEarthNet.uav[27] utilizationSecIdle 14562
scalar OsgEarthNet.uav[27] utilizationEnergyMission 185887.46126556
scalar OsgEarthNet.uav[27] utilizationEnergyMaintenance 79461.765476227
scalar OsgEarthNet.uav[27] utilizationEnergyCharge 265026.5390625
scalar OsgEarthNet.uav[27] utilizationEnergyOverdrawMission 0
scalar OsgEarthNet.uav[27] utilizationEnergyOverdrawMaintenance 0
scalar OsgEarthNet.uav[27] utilizationCountMissions 59
scalar OsgEarthNet.uav[27] utilizationCountManeuversMission 1027
scalar OsgEarthNet.uav[27] utilizationCountManeuversMaintenance 118
scalar OsgEarthNet.uav[27] utilizationCountChargeState 59
scalar OsgEarthNet.uav[27] utilizationCountOverdrawnAfterMission 0
scalar OsgEarthNet.uav[27] utilizationCountIdleState 13
scalar OsgEarthNet.uav[27] utilizationFail 0
scalar OsgEarthNet.uav[27] simulationTime 259200
scalar OsgEarthNet.uav[28] utilizationSecMission 42307.666613541
scalar OsgEarthNet.uav[28] utilizationSecMaintenance 17661.262290603
scalar OsgEarthNet.uav[28] utilizationSecCharge 197859.06909586
scalar OsgEarthNet.uav[28] utilizationSecIdle 1372.001
scalar OsgEarthNet.uav[28] utilizationEnergyMission 204069.23231125
scalar OsgEarthNet.uav[28] utilizationEnergyMaintenance 81308.557544708
scalar OsgEarthNet.uav[28] utilizationEnergyCharge 282916.72290039
scalar OsgEarthNet.uav[28] utilizationEnergyOverdrawMission 0
scalar OsgEarthNet.uav[28] utilizationEnergyOverdrawMaintenance 0
scalar OsgEarthNet.uav[28] utilizationCountMissions 62
scalar OsgEarthNet.uav[28] utilizationCountManeuversMission 1238
scalar OsgEarthNet.uav[28] utilizationCountManeuversMaintenance 124
scalar OsgEarthNet.uav[28] utilizationCountChargeState 62
scalar OsgEarthNet.uav[28] utilizationCountOverdrawnAfterMission 0
scalar OsgEarthNet.uav[28] utilizationCountIdleState 12
scalar OsgEarthNet.uav[28] utilizationFail 0
scalar OsgEarthNet.uav[28] simulationTime 259200
scalar OsgEarthNet.uav[29] utilizationSecMission 11703.750915482
scalar OsgEarthNet.uav[29] utilizationSecMaintenance 7957.6590589501
scalar OsgEarthNet.uav[29] utilizationSecCharge 73230
scalar OsgEarthNet.uav[29] utilizationSecIdle 166308.58902557
scalar OsgEarthNet.uav[29] utilizationEnergyMission 57558.010791779
scalar OsgEarthNet.uav[29] utilizationEnergyMaintenance 37476.133235931
scalar OsgEarthNet.uav[29] utilizationEnergyCharge 94188.542480469
scalar OsgEarthNet.uav[29] utilizationEnergyOverdrawMission 0
scalar OsgEarthNet.uav[29] utilizationEnergyOverdrawMaintenance 0
scalar OsgEarthNet.uav[29] utilizationCountMissions 21
scalar OsgEarthNet.uav[29] utilizationCountManeuversMission 429
scalar OsgEarthNet.uav[29] utilizationCountManeuversMaintenance 42
scalar OsgEarthNet.uav[29] utilizationCountChargeState 21
scalar OsgEarthNet.uav[29] utilizationCountOverdrawnAfterMission 0
scalar OsgEarthNet.uav[29] utilizationCountIdleState 22
scalar OsgEarthNet.uav[29] utilizationFail 0
scalar OsgEarthNet.uav[29] simulationTime 259200
scalar OsgEarthNet.uav[30] utilizationSecMission 12005.001220642
scalar OsgEarthNet.uav[30] utilizationSecMaintenance 7536.5353474925
scalar OsgEarthNet.uav[30] utilizationSecCharge 73420
scalar OsgEarthNet.uav[30] utilizationSecIdle 166238.46243187
scalar OsgEarthNet.uav[30] utilizationEnergyMission 58719.264083862
scalar OsgEarthNet.uav[30] utilizationEnergyMaintenance 35986.390346527
scalar OsgEarthNet.uav[30] utilizationEnergyCharge 94456.579589844
scalar OsgEarthNet.uav[30] utilizationEnergyOverdrawMission 0
scalar OsgEarthNet.uav[30] utilizationEnergyOverdrawMaintenance 0
scalar OsgEarthNet.uav[30] utilizationCountMissions 21
scalar OsgEarthNet.uav[30] utilizationCountManeuversMission 392
scalar OsgEarthNet.uav[30] utilizationCountManeuversMaintenance 42
scalar OsgEarthNet.uav[30] utilizationCountChargeState 21
scalar OsgEarthNet.uav[30] utilizationCountOverdrawnAfterMission 0
scalar OsgEarthNet.uav[30] utilizationCountIdleState 22
scalar OsgEarthNet.uav[30] utilizationFail 0
scalar OsgEarthNet.uav[30] simulationTime 259200
scalar OsgEarthNet.uav[31] utilizationSecMission 13708.96862359
scalar OsgEarthNet.uav[31] utilizationSecMaintenance 10664.034344763
scalar OsgEarthNet.uav[31] utilizationSecCharge 97330
scalar OsgEarthNet.uav[31] utilizationSecIdle 137496.99603165
scalar OsgEarthNet.uav[31] utilizationEnergyMission 66270.985790253
scalar OsgEarthNet.uav[31] utilizationEnergyMaintenance 51122.792186737
scalar OsgEarthNet.uav[31] utilizationEnergyCharge 117577.015625
scalar OsgEarthNet.uav[31] utilizationEnergyOverdrawMission 0
scalar OsgEarthNet.uav[31] utilizationEnergyOverdrawMaintenance 0
scalar OsgEarthNet.uav[31] utilizationCountMissions 32
scalar OsgEarthNet.uav[31] utilizationCountManeuversMission 475
scalar OsgEarthNet.uav[31] utilizationCountManeuversMaintenance 64
scalar OsgEarthNet.uav[31] utilizationCountChargeState 32
scalar OsgEarthNet.uav[31] utilizationCountOverdrawnAfterMission 0
scalar OsgEarthNet.uav[31] utilizationCountIdleState 33
scalar OsgEarthNet.uav[31] utilizationFail 0
scalar OsgEarthNet.uav[31] simulationTime 259200
scalar OsgEarthNet.uav[32] utilizationSecMission 41439.768057358
scalar OsgEarthNet.uav[32] utilizationSecMaintenance 17897.139524153
scalar OsgEarthNet.uav[32] utilizationSecCharge 196601.08641849
scalar OsgEarthNet.uav[32] utilizationSecIdle 3262.005
scalar OsgEarthNet.uav[32] utilizationEnergyMission 198342.97288513
scalar OsgEarthNet.uav[32] utilizationEnergyMaintenance 82026.064689636
scalar OsgEarthNet.uav[32] utilizationEnergyCharge 281851.60058594
scalar OsgEarthNet.uav[32] utilizationEnergyOverdrawMission 0
scalar OsgEarthNet.uav[32] utilizationEnergyOverdrawMaintenance 0
scalar OsgEarthNet.uav[32] utilizationCountMissions 62
scalar OsgEarthNet.uav[32] utilizationCountManeuversMission 1240
scalar OsgEarthNet.uav[32] utilizationCountManeuversMaintenance 124
scalar OsgEarthNet.uav[32] utilizationCountChargeState 62
scalar OsgEarthNet.uav[32] utilizationCountOverdrawnAfterMission 0
scalar OsgEarthNet.uav[32] utilizationCountIdleState 8
scalar OsgEarthNet.uav[32] utilizationFail 0
scalar OsgEarthNet.uav[32] simulationTime 259200
scalar OsgEarthNet.uav[33] utilizationSecMission 12244.376068062
scalar OsgEarthNet.uav[33] utilizationSecMaintenance 8500.3145569626
scalar OsgEarthNet.uav[33] utilizationSecCharge 75213.297374975
scalar OsgEarthNet.uav[33] utilizationSecIdle 163242.011
scalar OsgEarthNet.uav[33] utilizationEnergyMission 59445.019207001
scalar OsgEarthNet.uav[33] utilizationEnergyMaintenance 40971.277534485
scalar OsgEarthNet.uav[33] utilizationEnergyCharge 97937.203369141
scalar OsgEarthNet.uav[33] utilizationEnergyOverdrawMission 0
scalar OsgEarthNet.uav[33] utilizationEnergyOverdrawMaintenance 0
scalar OsgEarthNet.uav[33] utilizationCountMissions 22
scalar OsgEarthNet.uav[33] utilizationCountManeuversMission 430
scalar OsgEarthNet.uav[33] utilizationCountManeuversMaintenance 44
scalar OsgEarthNet.uav[33] utilizationCountChargeState 22
scalar OsgEarthNet.uav[33] utilizationCountOverdrawnAfterMission 0
scalar OsgEarthNet.uav[33] utilizationCountIdleState 22
scalar OsgEarthNet.uav[33] utilizationFail 0
scalar OsgEarthNet.uav[33] simulationTime 259200
scalar OsgEarthNet.uav[34] utilizationSecMission 14876.696448003
scalar OsgEarthNet.uav[34] utilizationSecMaintenance 9893.5785101738
scalar OsgEarthNet.uav[34] utilizationSecCharge 95157.719041823
scalar OsgEarthNet.uav[34] utilizationSecIdle 139272.005
scalar OsgEarthNet.uav[34] utilizationEnergyMission 73706.164432526
scalar OsgEarthNet.uav[34] utilizationEnergyMaintenance 46912.349464416
scalar OsgEarthNet.uav[34] utilizationEnergyCharge 118851.57983398
scalar OsgEarthNet.uav[34] utilizationEnergyOverdrawMission 0
scalar OsgEarthNet.uav[34] utilizationEnergyOverdrawMaintenance 0
scalar OsgEarthNet.uav[34] utilizationCountMissions 30
scalar OsgEarthNet.uav[34] utilizationCountManeuversMission 461
scalar OsgEarthNet.uav[34] utilizationCountManeuversMaintenance 60
scalar OsgEarthNet.uav[34] utilizationCountChargeState 30
scalar OsgEarthNet.uav[34] utilizationCountOverdrawnAfterMission 0
scalar OsgEarthNet.uav[34] utilizationCountIdleState 30
scalar OsgEarthNet.uav[34] utilizationFail 0
scalar OsgEarthNet.uav[34] simulationTime 259200
scalar OsgEarthNet.uav[35] utilizationSecMission 40007.744793681
scalar OsgEarthNet.uav[35] utilizationSecMaintenance 19634.667052672
scalar OsgEarthNet.uav[35] utilizationSecCharge 198905.58715365
scalar OsgEarthNet.uav[35] utilizationSecIdle 652
scalar OsgEarthNet.uav[35] utilizationEnergyMission 196784.51149368
scalar OsgEarthNet.uav[35] utilizationEnergyMaintenance 90703.742889404
scalar OsgEarthNet.uav[35] utilizationEnergyCharge 287981.47851562
scalar OsgEarthNet.uav[35] utilizationEnergyOverdrawMission 0
scalar OsgEarthNet.uav[35] utilizationEnergyOverdrawMaintenance 0
scalar OsgEarthNet.uav[35] utilizationCountMissions 63
scalar OsgEarthNet.uav[35] utilizationCountManeuversMission 1524
scalar OsgEarthNet.uav[35] utilizationCountManeuversMaintenance 126
scalar OsgEarthNet.uav[35] utilizationCountChargeState 63
scalar OsgEarthNet.uav[35] utilizationCountOverdrawnAfterMission 0
scalar OsgEarthNet.uav[35] utilizationCountIdleState 8
scalar OsgEarthNet.uav[35] utilizationFail 0
scalar OsgEarthNet.uav[35] simulationTime 259200
scalar OsgEarthNet.uav[36] utilizationSecMission 16336.618639633
scalar OsgEarthNet.uav[36] utilizationSecMaintenance 10113.647528996
scalar OsgEarthNet.uav[36] utilizationSecCharge 97830
scalar OsgEarthNet.uav[36] utilizationSecIdle 134919.73283137
scalar OsgEarthNet.uav[36] utilizationEnergyMission 79369.773933411
scalar OsgEarthNet.uav[36] utilizationEnergyMaintenance 47839.08644104
scalar OsgEarthNet.uav[36] utilizationEnergyCharge 126081.85595703
scalar OsgEarthNet.uav[36] utilizationEnergyOverdrawMission 0
scalar OsgEarthNet.uav[36] utilizationEnergyOverdrawMaintenance 0
scalar OsgEarthNet.uav[36] utilizationCountMissions 28
scalar OsgEarthNet.uav[36] utilizationCountManeuversMission 535
scalar OsgEarthNet.uav[36] utilizationCountManeuversMaintenance 56
scalar OsgEarthNet.uav[36] utilizationCountChargeState 28
scalar OsgEarthNet.uav[36] utilizationCountOverdrawnAfterMission 0
scalar OsgEarthNet.uav[36] utilizationCountIdleState 29
scalar OsgEarthNet.uav[36] utilizationFail 0
scalar OsgEarthNet.uav[36] simulationTime 259200
scalar OsgEarthNet.uav[37] utilizationSecMission 16581.354099033
scalar OsgEarthNet.uav[37] utilizationSecMaintenance 10564.439734937
scalar OsgEarthNet.uav[37] utilizationSecCharge 101692.19716603
scalar OsgEarthNet.uav[37] utilizationSecIdle 130362.008
scalar OsgEarthNet.uav[37] utilizationEnergyMission 80224.144458771
scalar OsgEarthNet.uav[37] utilizationEnergyMaintenance 50406.278614044
scalar OsgEarthNet.uav[37] utilizationEnergyCharge 128837.96142578
scalar OsgEarthNet.uav[37] utilizationEnergyOverdrawMission 0
scalar OsgEarthNet.uav[37] utilizationEnergyOverdrawMaintenance 0
scalar OsgEarthNet.uav[37] utilizationCountMissions 31
scalar OsgEarthNet.uav[37] utilizationCountManeuversMission 549
scalar OsgEarthNet.uav[37] utilizationCountManeuversMaintenance 62
scalar OsgEarthNet.uav[37] utilizationCountChargeState 31
scalar OsgEarthNet.uav[37] utilizationCountOverdrawnAfterMission 0
scalar OsgEarthNet.uav[37] utilizationCountIdleState 31
scalar OsgEarthNet.uav[37] utilizationFail 0
scalar OsgEarthNet.uav[37] simulationTime 259200
scalar OsgEarthNet.uav[38] utilizationSecMission 41863.962955237
scalar OsgEarthNet.uav[38] utilizationSecMaintenance 17441.305502662
scalar OsgEarthNet.uav[38] utilizationSecCharge 197112.7265421
scalar OsgEarthNet.uav[38] utilizationSecIdle 2782.004
scalar OsgEarthNet.uav[38] utilizationEnergyMission 198281.95294571
scalar OsgEarthNet.uav[38] utilizationEnergyMaintenance 80457.242488861
scalar OsgEarthNet.uav[38] utilizationEnergyCharge 282102.68212891
scalar OsgEarthNet.uav[38] utilizationEnergyOverdrawMission 0
scalar OsgEarthNet.uav[38] utilizationEnergyOverdrawMaintenance 0
scalar OsgEarthNet.uav[38] utilizationCountMissions 61
scalar OsgEarthNet.uav[38] utilizationCountManeuversMission 1171
scalar OsgEarthNet.uav[38] utilizationCountManeuversMaintenance 122
scalar OsgEarthNet.uav[38] utilizationCountChargeState 61
scalar OsgEarthNet.uav[38] utilizationCountOverdrawnAfterMission 0
scalar OsgEarthNet.uav[38] utilizationCountIdleState 9
scalar OsgEarthNet.uav[38] utilizationFail 0
scalar OsgEarthNet.uav[38] simulationTime 259200
scalar OsgEarthNet.uav[39] utilizationSecMission 15317.759869714
scalar OsgEarthNet.uav[39] utilizationSecMaintenance 8450.9228322183
scalar OsgEarthNet.uav[39] utilizationSecCharge 87499.312298068
scalar OsgEarthNet.uav[39] utilizationSecIdle 147932.004
scalar OsgEarthNet.uav[39] utilizationEnergyMission 74529.328704834
scalar OsgEarthNet.uav[39] utilizationEnergyMaintenance 40026.153514862
scalar OsgEarthNet.uav[39] utilizationEnergyCharge 113190.26660156
scalar OsgEarthNet.uav[39] utilizationEnergyOverdrawMission 0
scalar OsgEarthNet.uav[39] utilizationEnergyOverdrawMaintenance 0
scalar OsgEarthNet.uav[39] utilizationCountMissions 25
scalar OsgEarthNet.uav[39] utilizationCountManeuversMission 449
scalar OsgEarthNet.uav[39] utilizationCountManeuversMaintenance 50
scalar OsgEarthNet.uav[39] utilizationCountChargeState 25
scalar OsgEarthNet.uav[39] utilizationCountOverdrawnAfterMission 0
scalar OsgEarthNet.uav[39] utilizationCountIdleState 25
scalar OsgEarthNet.uav[39] utilizationFail 0
scalar OsgEarthNet.uav[39] simulationTime 259200
scalar OsgEarthNet.uav[40] utilizationSecMission 13896.939753353
scalar OsgEarthNet.uav[40] utilizationSecMaintenance 8904.086294082
scalar OsgEarthNet.uav[40] utilizationSecCharge 84380
scalar OsgEarthNet.uav[40] utilizationSecIdle 152018.97295257
scalar OsgEarthNet.uav[40] utilizationEnergyMission 69099.482978821
scalar OsgEarthNet.uav[40] utilizationEnergyMaintenance 42162.318878174
scalar OsgEarthNet.uav[40] utilizationEnergyCharge 108554.03417969
scalar OsgEarthNet.uav[40] utilizationEnergyOverdrawMission 0
scalar OsgEarthNet.uav[40] utilizationEnergyOverdrawMaintenance 0
scalar OsgEarthNet.uav[40] utilizationCountMissions 24
scalar OsgEarthNet.uav[40] utilizationCountManeuversMission 467
scalar OsgEarthNet.uav[40] utilizationCountManeuversMaintenance 48
scalar OsgEarthNet.uav[40] utilizationCountChargeState 24
scalar OsgEarthNet.uav[40] utilizationCountOverdrawnAfterMission 0
scalar OsgEarthNet.uav[40] utilizationCountIdleState 25
scalar OsgEarthNet.uav[40] utilizationFail 0
scalar OsgEarthNet.uav[40] simulationTime 259200
scalar OsgEarthNet.uav[41] utilizationSecMission 16116.696448003
scalar OsgEarthNet.uav[41] utilizationSecMaintenance 10694.554214138
scalar OsgEarthNet.uav[41] utilizationSecCharge 100646.74233786
scalar OsgEarthNet.uav[41] utilizationSecIdle 131742.006
scalar OsgEarthNet.uav[41] utilizationEnergyMission 78433.723903656
scalar OsgEarthNet.uav[41] utilizationEnergyMaintenance 50985.920330048
scalar OsgEarthNet.uav[41] utilizationEnergyCharge 125277.78405762
scalar OsgEarthNet.uav[41] utilizationEnergyOverdrawMission 0
scalar OsgEarthNet.uav[41] utilizationEnergyOverdrawMaintenance 0
scalar OsgEarthNet.uav[41] utilizationCountMissions 32
scalar OsgEarthNet.uav[41] utilizationCountManeuversMission 523
scalar OsgEarthNet.uav[41] utilizationCountManeuversMaintenance 64
scalar OsgEarthNet.uav[41] utilizationCountChargeState 32
scalar OsgEarthNet.uav[41] utilizationCountOverdrawnAfterMission 0
scalar OsgEarthNet.uav[41] utilizationCountIdleState 32
scalar OsgEarthNet.uav[41] utilizationFail 0
scalar OsgEarthNet.uav[41] simulationTime 259200
scalar OsgEarthNet.uav[42] utilizationSecMission 42729.197059554
scalar OsgEarthNet.uav[42] utilizationSecMaintenance 17338.799940446
scalar OsgEarthNet.uav[42] utilizationSecCharge 196990
scalar OsgEarthNet.uav[42] utilizationSecIdle 2142.002
scalar OsgEarthNet.uav[42] utilizationEnergyMission 203933.90409184
scalar OsgEarthNet.uav[42] utilizationEnergyMaintenance 79017.70589447
scalar OsgEarthNet.uav[42] utilizationEnergyCharge 280027.55517578
scalar OsgEarthNet.uav[42] utilizationEnergyOverdrawMission 0
scalar OsgEarthNet.uav[42] utilizationEnergyOverdrawMaintenance 0
scalar OsgEarthNet.uav[42] utilizationCountMissions 61
scalar OsgEarthNet.uav[42] utilizationCountManeuversMission 1167
scalar OsgEarthNet.uav[42] utilizationCountManeuversMaintenance 123
scalar OsgEarthNet.uav[42] utilizationCountChargeState 61
scalar OsgEarthNet.uav[42] utilizationCountOverdrawnAfterMission 0
scalar OsgEarthNet.uav[42] utilizationCountIdleState 12
scalar OsgEarthNet.uav[42] utilizationFail 0
scalar OsgEarthNet.uav[42] simulationTime 259200
scalar OsgEarthNet.uav[43] utilizationSecMission 14905.001220642
scalar OsgEarthNet.uav[43] utilizationSecMaintenance 10133.758386622
scalar OsgEarthNet.uav[43] utilizationSecCharge 95050
scalar OsgEarthNet.uav[43] utilizationSecIdle 139111.23939274
scalar OsgEarthNet.uav[43] utilizationEnergyMission 73631.909114838
scalar OsgEarthNet.uav[43] utilizationEnergyMaintenance 48413.625888824
scalar OsgEarthNet.uav[43] utilizationEnergyCharge 122958.640625
scalar OsgEarthNet.uav[43] utilizationEnergyOverdrawMission 0
scalar OsgEarthNet.uav[43] utilizationEnergyOverdrawMaintenance 0
scalar OsgEarthNet.uav[43] utilizationCountMissions 27
scalar OsgEarthNet.uav[43] utilizationCountManeuversMission 537
scalar OsgEarthNet.uav[43] utilizationCountManeuversMaintenance 54
scalar OsgEarthNet.uav[43] utilizationCountChargeState 27
scalar OsgEarthNet.uav[43] utilizationCountOverdrawnAfterMission 0
scalar OsgEarthNet.uav[43] utilizationCountIdleState 28
scalar OsgEarthNet.uav[43] utilizationFail 0
scalar OsgEarthNet.uav[43] simulationTime 259200
scalar OsgEarthNet.uav[44] utilizationSecMission 20664.837872142
scalar OsgEarthNet.uav[44] utilizationSecMaintenance 13211.444142498
scalar OsgEarthNet.uav[44] utilizationSecCharge 128881.71547864
scalar OsgEarthNet.uav[44] utilizationSecIdle 96442.001506722
scalar OsgEarthNet.uav[44] utilizationEnergyMission 101137.54709244
scalar OsgEarthNet.uav[44] utilizationEnergyMaintenance 62945.380474091
scalar OsgEarthNet.uav[44] utilizationEnergyCharge 161888.6706543
scalar OsgEarthNet.uav[44] utilizationEnergyOverdrawMission 0
scalar OsgEarthNet.uav[44] utilizationEnergyOverdrawMaintenance 0
scalar OsgEarthNet.uav[44] utilizationCountMissions 40
scalar OsgEarthNet.uav[44] utilizationCountManeuversMission 632
scalar OsgEarthNet.uav[44] utilizationCountManeuversMaintenance 80
scalar OsgEarthNet.uav[44] utilizationCountChargeState 40
scalar OsgEarthNet.uav[44] utilizationCountOverdrawnAfterMission 0
scalar OsgEarthNet.uav[44] utilizationCountIdleState 40
scalar OsgEarthNet.uav[44] utilizationFail 0
scalar OsgEarthNet.uav[44] simulationTime 259200
scalar OsgEarthNet.uav[45] utilizationSecMission 42560.619613113
scalar OsgEarthNet.uav[45] utilizationSecMaintenance 17311.032472771
scalar OsgEarthNet.uav[45] utilizationSecCharge 196066.34291412
scalar OsgEarthNet.uav[45] utilizationSecIdle 3262.004
scalar OsgEarthNet.uav[45] utilizationEnergyMission 205780.38346863
scalar OsgEarthNet.uav[45] utilizationEnergyMaintenance 80518.36000061
scalar OsgEarthNet.uav[45] utilizationEnergyCharge 280393.91577148
scalar OsgEarthNet.uav[45] utilizationEnergyOverdrawMission 0
scalar OsgEarthNet.uav[45] utilizationEnergyOverdrawMaintenance 0
scalar OsgEarthNet.uav[45] utilizationCountMissions 62
scalar OsgEarthNet.uav[45] utilizationCountManeuversMission 1277
scalar OsgEarthNet.uav[45] utilizationCountManeuversMaintenance 124
scalar OsgEarthNet.uav[45] utilizationCountChargeState 62
scalar OsgEarthNet.uav[45] utilizationCountOverdrawnAfterMission 0
scalar OsgEarthNet.uav[45] utilizationCountIdleState 10
scalar OsgEarthNet.uav[45] utilizationFail 0
scalar OsgEarthNet.uav[45] simulationTime 259200
scalar OsgEarthNet.uav[46] utilizationSecMission 12784.376068062
scalar OsgEarthNet.uav[46] utilizationSecMaintenance 8510.9096739671
scalar OsgEarthNet.uav[46] utilizationSecCharge 80200
scalar OsgEarthNet.uav[46] utilizationSecIdle 157704.71325797
scalar OsgEarthNet.uav[46] utilizationEnergyMission 62930.560340881
scalar OsgEarthNet.uav[46] utilizationEnergyMaintenance 40792.616107941
scalar OsgEarthNet.uav[46] utilizationEnergyCharge 103251.4296875
scalar OsgEarthNet.uav[46] utilizationEnergyOverdrawMission 0
scalar OsgEarthNet.uav[46] utilizationEnergyOverdrawMaintenance 0
scalar OsgEarthNet.uav[46] utilizationCountMissions 23
scalar OsgEarthNet.uav[46] utilizationCountManeuversMission 457
scalar OsgEarthNet.uav[46] utilizationCountManeuversMaintenance 46
scalar OsgEarthNet.uav[46] utilizationCountChargeState 23
scalar OsgEarthNet.uav[46] utilizationCountOverdrawnAfterMission 0
scalar OsgEarthNet.uav[46] utilizationCountIdleState 24
scalar OsgEarthNet.uav[46] utilizationFail 0
scalar OsgEarthNet.uav[46] simulationTime 259200
scalar OsgEarthNet.uav[47] utilizationSecMission 18263.914580971
scalar OsgEarthNet.uav[47] utilizationSecMaintenance 13350.924691706
scalar OsgEarthNet.uav[47] utilizationSecCharge 124560
scalar OsgEarthNet.uav[47] utilizationSecIdle 103025.15972732
scalar OsgEarthNet.uav[47] utilizationEnergyMission 88240.950374603
scalar OsgEarthNet.uav[47] utilizationEnergyMaintenance 63521.872154236
scalar OsgEarthNet.uav[47] utilizationEnergyCharge 150473.30541992
scalar OsgEarthNet.uav[47] utilizationEnergyOverdrawMission 0
scalar OsgEarthNet.uav[47] utilizationEnergyOverdrawMaintenance 0
scalar OsgEarthNet.uav[47] utilizationCountMissions 41
scalar OsgEarthNet.uav[47] utilizationCountManeuversMission 569
scalar OsgEarthNet.uav[47] utilizationCountManeuversMaintenance 82
scalar OsgEarthNet.uav[47] utilizationCountChargeState 41
scalar OsgEarthNet.uav[47] utilizationCountOverdrawnAfterMission 0
scalar OsgEarthNet.uav[47] utilizationCountIdleState 42
scalar OsgEarthNet.uav[47] utilizationFail 0
scalar OsgEarthNet.uav[47] simulationTime 259200
scalar OsgEarthNet.uav[48] utilizationSecMission 42173.890540453
scalar OsgEarthNet.uav[48] utilizationSecMaintenance 18173.383229521
scalar OsgEarthNet.uav[48] utilizationSecCharge 197363.50561611
scalar OsgEarthNet.uav[48] utilizationSecIdle 1489.2196139157
scalar OsgEarthNet.uav[48] utilizationEnergyMission 201081.52149963
scalar OsgEarthNet.uav[48] utilizationEnergyMaintenance 83376.001270294
scalar OsgEarthNet.uav[48] utilizationEnergyCharge 283291.53027344
scalar OsgEarthNet.uav[48] utilizationEnergyOverdrawMission 0
scalar OsgEarthNet.uav[48] utilizationEnergyOverdrawMaintenance 0
scalar OsgEarthNet.uav[48] utilizationCountMissions 62
scalar OsgEarthNet.uav[48] utilizationCountManeuversMission 1183
scalar OsgEarthNet.uav[48] utilizationCountManeuversMaintenance 124
scalar OsgEarthNet.uav[48] utilizationCountChargeState 62
scalar OsgEarthNet.uav[48] utilizationCountOverdrawnAfterMission 0
scalar OsgEarthNet.uav[48] utilizationCountIdleState 7
scalar OsgEarthNet.uav[48] utilizationFail 0
scalar OsgEarthNet.uav[48] simulationTime 259200
scalar OsgEarthNet.uav[49] utilizationSecMission 14274.743181892
scalar OsgEarthNet.uav[49] utilizationSecMaintenance 9719.4186595297
scalar OsgEarthNet.uav[49] utilizationSecCharge 89673.815158579
scalar OsgEarthNet.uav[49] utilizationSecIdle 145532.022
scalar OsgEarthNet.uav[49] utilizationEnergyMission 70822.890048981
scalar OsgEarthNet.uav[49] utilizationEnergyMaintenance 46472.827842712
scalar OsgEarthNet.uav[49] utilizationEnergyCharge 115982.60253906
scalar OsgEarthNet.uav[49] utilizationEnergyOverdrawMission 0
scalar OsgEarthNet.uav[49] utilizationEnergyOverdrawMaintenance 0
scalar OsgEarthNet.uav[49] utilizationCountMissions 26
scalar OsgEarthNet.uav[49] utilizationCountManeuversMission 510
scalar OsgEarthNet.uav[49] utilizationCountManeuversMaintenance 52
scalar OsgEarthNet.uav[49] utilizationCountChargeState 26
scalar OsgEarthNet.uav[49] utilizationCountOverdrawnAfterMission 0
scalar OsgEarthNet.uav[49] utilizationCountIdleState 26
scalar OsgEarthNet.uav[49] utilizationFail 0
scalar OsgEarthNet.uav[49] simulationTime 259200
scalar OsgEarthNet.uav[50] utilizationSecMission 13285.626373223
scalar OsgEarthNet.uav[50] utilizationSecMaintenance 8351.8879284167
scalar OsgEarthNet.uav[50] utilizationSecCharge 80540
scalar OsgEarthNet.uav[50] utilizationSecIdle 157022.48469836
scalar OsgEarthNet.uav[50] utilizationEnergyMission 64838.071517944
scalar OsgEarthNet.uav[50] utilizationEnergyMaintenance 40196.144245148
scalar OsgEarthNet.uav[50] utilizationEnergyCharge 103738.56787109
scalar OsgEarthNet.uav[50] utilizationEnergyOverdrawMission 0
scalar OsgEarthNet.uav[50] utilizationEnergyOverdrawMaintenance 0
scalar OsgEarthNet.uav[50] utilizationCountMissions 23
scalar OsgEarthNet.uav[50] utilizationCountManeuversMission 430
scalar OsgEarthNet.uav[50] utilizationCountManeuversMaintenance 46
scalar OsgEarthNet.uav[50] utilizationCountChargeState 23
scalar OsgEarthNet.uav[50] utilizationCountOverdrawnAfterMission 0
scalar OsgEarthNet.uav[50] utilizationCountIdleState 24
scalar OsgEarthNet.uav[50] utilizationFail 0
scalar OsgEarthNet.uav[50] simulationTime 259200
scalar OsgEarthNet.uav[51] utilizationSecMission 17157.605318238
scalar OsgEarthNet.uav[51] utilizationSecMaintenance 12264.35659581
scalar OsgEarthNet.uav[51] utilizationSecCharge 114720
scalar OsgEarthNet.uav[51] utilizationSecIdle 115058.03708595
scalar OsgEarthNet.uav[51] utilizationEnergyMission 83778.696102142
scalar OsgEarthNet.uav[51] utilizationEnergyMaintenance 58072.220607758
scalar OsgEarthNet.uav[51] utilizationEnergyCharge 141916.04882812
scalar OsgEarthNet.uav[51] utilizationEnergyOverdrawMission 0
scalar OsgEarthNet.uav[51] utilizationEnergyOverdrawMaintenance 0
scalar OsgEarthNet.uav[51] utilizationCountMissions 36
scalar OsgEarthNet.uav[51] utilizationCountManeuversMission 604
scalar OsgEarthNet.uav[51] utilizationCountManeuversMaintenance 72
scalar OsgEarthNet.uav[51] utilizationCountChargeState 36
scalar OsgEarthNet.uav[51] utilizationCountOverdrawnAfterMission 0
scalar OsgEarthNet.uav[51] utilizationCountIdleState 37
scalar OsgEarthNet.uav[51] utilizationFail 0
scalar OsgEarthNet.uav[51] simulationTime 259200
scalar OsgEarthNet.uav[52] utilizationSecMission 42390.918376094
scalar OsgEarthNet.uav[52] utilizationSecMaintenance 17433.331931203
scalar OsgEarthNet.uav[52] utilizationSecCharge 195330
scalar OsgEarthNet.uav[52] utilizationSecIdle 4045.7486927025
scalar OsgEarthNet.uav[52] utilizationEnergyMission 203874.20173695
scalar OsgEarthNet.uav[52] utilizationEnergyMaintenance 80399.410190582
scalar OsgEarthNet.uav[52] utilizationEnergyCharge 280833.30615234
scalar OsgEarthNet.uav[52] utilizationEnergyOverdrawMission 0
scalar OsgEarthNet.uav[52] utilizationEnergyOverdrawMaintenance 0
scalar OsgEarthNet.uav[52] utilizationCountMissions 61
scalar OsgEarthNet.uav[52] utilizationCountManeuversMission 1233
scalar OsgEarthNet.uav[52] utilizationCountManeuversMaintenance 123
scalar OsgEarthNet.uav[52] utilizationCountChargeState 61
scalar OsgEarthNet.uav[52] utilizationCountOverdrawnAfterMission 0
scalar OsgEarthNet.uav[52] utilizationCountIdleState 9
scalar OsgEarthNet.uav[52] utilizationFail 0
scalar OsgEarthNet.uav[52] simulationTime 259200
scalar OsgEarthNet.uav[53] utilizationSecMission 15475.993487052
scalar OsgEarthNet.uav[53] utilizationSecMaintenance 10095.216025006
scalar OsgEarthNet.uav[53] utilizationSecCharge 95490
scalar OsgEarthNet.uav[53] utilizationSecIdle 138138.78948794
scalar OsgEarthNet.uav[53] utilizationEnergyMission 76305.87392807
scalar OsgEarthNet.uav[53] utilizationEnergyMaintenance 47416.717227936
scalar OsgEarthNet.uav[53] utilizationEnergyCharge 123446.56835938
scalar OsgEarthNet.uav[53] utilizationEnergyOverdrawMission 0
scalar OsgEarthNet.uav[53] utilizationEnergyOverdrawMaintenance 0
scalar OsgEarthNet.uav[53] utilizationCountMissions 27
scalar OsgEarthNet.uav[53] utilizationCountManeuversMission 518
scalar OsgEarthNet.uav[53] utilizationCountManeuversMaintenance 54
scalar OsgEarthNet.uav[53] utilizationCountChargeState 27
scalar OsgEarthNet.uav[53] utilizationCountOverdrawnAfterMission 0
scalar OsgEarthNet.uav[53] utilizationCountIdleState 28
scalar OsgEarthNet.uav[53] utilizationFail 0
scalar OsgEarthNet.uav[53] simulationTime 259200
scalar OsgEarthNet.uav[54] utilizationSecMission 17877.644634196
scalar OsgEarthNet.uav[54] utilizationSecMaintenance 11504.970715031
scalar OsgEarthNet.uav[54] utilizationSecCharge 112450
scalar OsgEarthNet.uav[54] utilizationSecIdle 117367.38365077
scalar OsgEarthNet.uav[54] utilizationEnergyMission 86428.28288269
scalar OsgEarthNet.uav[54] utilizationEnergyMaintenance 54993.46402359
scalar OsgEarthNet.uav[54] utilizationEnergyCharge 141288.02490234
scalar OsgEarthNet.uav[54] utilizationEnergyOverdrawMission 0
scalar OsgEarthNet.uav[54] utilizationEnergyOverdrawMaintenance 0
scalar OsgEarthNet.uav[54] utilizationCountMissions 34
scalar OsgEarthNet.uav[54] utilizationCountManeuversMission 553
scalar OsgEarthNet.uav[54] utilizationCountManeuversMaintenance 68
scalar OsgEarthNet.uav[54] utilizationCountChargeState 34
scalar OsgEarthNet.uav[54] utilizationCountOverdrawnAfterMission 0
scalar OsgEarthNet.uav[54] utilizationCountIdleState 35
scalar OsgEarthNet.uav[54] utilizationFail 0
scalar OsgEarthNet.uav[54] simulationTime 259200
scalar OsgEarthNet.uav[55] utilizationSecMission 41729.684788952
scalar OsgEarthNet.uav[55] utilizationSecMaintenance 17754.387903305
scalar OsgEarthNet.uav[55] utilizationSecCharge 195933.92130774
scalar OsgEarthNet.uav[55] utilizationSecIdle 3782.005
scalar OsgEarthNet.uav[55] utilizationEnergyMission 201068.37254333
scalar OsgEarthNet.uav[55] utilizationEnergyMaintenance 81760.726902008
scalar OsgEarthNet.uav[55] utilizationEnergyCharge 280219.81567383
scalar OsgEarthNet.uav[55] utilizationEnergyOverdrawMission 0
scalar OsgEarthNet.uav[55] utilizationEnergyOverdrawMaintenance 0
scalar OsgEarthNet.uav[55] utilizationCountMissions 62
scalar OsgEarthNet.uav[55] utilizationCountManeuversMission 1252
scalar OsgEarthNet.uav[55] utilizationCountManeuversMaintenance 124
scalar OsgEarthNet.uav[55] utilizationCountChargeState 62
scalar OsgEarthNet.uav[55] utilizationCountOverdrawnAfterMission 0
scalar OsgEarthNet.uav[55] utilizationCountIdleState 6
scalar OsgEarthNet.uav[55] utilizationFail 0
scalar OsgEarthNet.uav[55] simulationTime 259200
scalar OsgEarthNet.uav[56] utilizationSecMission 14568.126983544
scalar OsgEarthNet.uav[56] utilizationSecMaintenance 7160.1712176254
scalar OsgEarthNet.uav[56] utilizationSecCharge 79349.688798831
scalar OsgEarthNet.uav[56] utilizationSecIdle 158122.012
scalar OsgEarthNet.uav[56] utilizationEnergyMission 70184.582454681
scalar OsgEarthNet.uav[56] utilizationEnergyMaintenance 33987.453083038
scalar OsgEarthNet.uav[56] utilizationEnergyCharge 103359.68725586
scalar OsgEarthNet.uav[56] utilizationEnergyOverdrawMission 0
scalar OsgEarthNet.uav[56] utilizationEnergyOverdrawMaintenance 0
scalar OsgEarthNet.uav[56] utilizationCountMissions 23
scalar OsgEarthNet.uav[56] utilizationCountManeuversMission 390
scalar OsgEarthNet.uav[56] utilizationCountManeuversMaintenance 46
scalar OsgEarthNet.uav[56] utilizationCountChargeState 23
scalar OsgEarthNet.uav[56] utilizationCountOverdrawnAfterMission 0
scalar OsgEarthNet.uav[56] utilizationCountIdleState 23
scalar OsgEarthNet.uav[56] utilizationFail 0
scalar OsgEarthNet.uav[56] simulationTime 259200
scalar OsgEarthNet.uav[57] utilizationSecMission 19532.344475756
scalar OsgEarthNet.uav[57] utilizationSecMaintenance 12916.598860866
scalar OsgEarthNet.uav[57] utilizationSecCharge 125456.34996434
scalar OsgEarthNet.uav[57] utilizationSecIdle 101294.70569904
scalar OsgEarthNet.uav[57] utilizationEnergyMission 93929.186820984
scalar OsgEarthNet.uav[57] utilizationEnergyMaintenance 60964.848144531
scalar OsgEarthNet.uav[57] utilizationEnergyCharge 156534.70556641
scalar OsgEarthNet.uav[57] utilizationEnergyOverdrawMission 0
scalar OsgEarthNet.uav[57] utilizationEnergyOverdrawMaintenance 0
scalar OsgEarthNet.uav[57] utilizationCountMissions 39
scalar OsgEarthNet.uav[57] utilizationCountManeuversMission 612
scalar OsgEarthNet.uav[57] utilizationCountManeuversMaintenance 78
scalar OsgEarthNet.uav[57] utilizationCountChargeState 39
scalar OsgEarthNet.uav[57] utilizationCountOverdrawnAfterMission 0
scalar OsgEarthNet.uav[57] utilizationCountIdleState 39
scalar OsgEarthNet.uav[57] utilizationFail 0
scalar OsgEarthNet.uav[57] simulationTime 259200
scalar OsgEarthNet.uav[58] utilizationSecMission 17714.82976446
scalar OsgEarthNet.uav[58] utilizationSecMaintenance 12230.888167527
scalar OsgEarthNet.uav[58] utilizationSecCharge 114030
scalar OsgEarthNet.uav[58] utilizationSecIdle 115224.28106801
scalar OsgEarthNet.uav[58] utilizationEnergyMission 85647.928024292
scalar OsgEarthNet.uav[58] utilizationEnergyMaintenance 57725.660652161
scalar OsgEarthNet.uav[58] utilizationEnergyCharge 143619.58959961
scalar OsgEarthNet.uav[58] utilizationEnergyOverdrawMission 0
scalar OsgEarthNet.uav[58] utilizationEnergyOverdrawMaintenance 0
scalar OsgEarthNet.uav[58] utilizationCountMissions 37
scalar OsgEarthNet.uav[58] utilizationCountManeuversMission 617
scalar OsgEarthNet.uav[58] utilizationCountManeuversMaintenance 74
scalar OsgEarthNet.uav[58] utilizationCountChargeState 37
scalar OsgEarthNet.uav[58] utilizationCountOverdrawnAfterMission 0
scalar OsgEarthNet.uav[58] utilizationCountIdleState 30
scalar OsgEarthNet.uav[58] utilizationFail 0
scalar OsgEarthNet.uav[58] simulationTime 259200
scalar OsgEarthNet.uav[59] utilizationSecMission 42464.23211498
scalar OsgEarthNet.uav[59] utilizationSecMaintenance 17463.342467711
scalar OsgEarthNet.uav[59] utilizationSecCharge 198420.42441731
scalar OsgEarthNet.uav[59] utilizationSecIdle 852
scalar OsgEarthNet.uav[59] utilizationEnergyMission 206796.99327469
scalar OsgEarthNet.uav[59] utilizationEnergyMaintenance 79872.485542297
scalar OsgEarthNet.uav[59] utilizationEnergyCharge 284933.24072266
scalar OsgEarthNet.uav[59] utilizationEnergyOverdrawMission 0
scalar OsgEarthNet.uav[59] utilizationEnergyOverdrawMaintenance 0
scalar OsgEarthNet.uav[59] utilizationCountMissions 62
scalar OsgEarthNet.uav[59] utilizationCountManeuversMission 1276
scalar OsgEarthNet.uav[59] utilizationCountManeuversMaintenance 123
scalar OsgEarthNet.uav[59] utilizationCountChargeState 62
scalar OsgEarthNet.uav[59] utilizationCountOverdrawnAfterMission 0
scalar OsgEarthNet.uav[59] utilizationCountIdleState 11
scalar OsgEarthNet.uav[59] utilizationFail 0
scalar OsgEarthNet.uav[59] simulationTime 259200
scalar OsgEarthNet.uav[60] utilizationSecMission 15277.759869714
scalar OsgEarthNet.uav[60] utilizationSecMaintenance 8548.3214747297
scalar OsgEarthNet.uav[60] utilizationSecCharge 87547.393747605
scalar OsgEarthNet.uav[60] utilizationSecIdle 147826.52390795
scalar OsgEarthNet.uav[60] utilizationEnergyMission 71871.323616028
scalar OsgEarthNet.uav[60] utilizationEnergyMaintenance 40878.802146912
scalar OsgEarthNet.uav[60] utilizationEnergyCharge 113140.62158203
scalar OsgEarthNet.uav[60] utilizationEnergyOverdrawMission 0
scalar OsgEarthNet.uav[60] utilizationEnergyOverdrawMaintenance 0
scalar OsgEarthNet.uav[60] utilizationCountMissions 25
scalar OsgEarthNet.uav[60] utilizationCountManeuversMission 447
scalar OsgEarthNet.uav[60] utilizationCountManeuversMaintenance 50
scalar OsgEarthNet.uav[60] utilizationCountChargeState 25
scalar OsgEarthNet.uav[60] utilizationCountOverdrawnAfterMission 0
scalar OsgEarthNet.uav[60] utilizationCountIdleState 25
scalar OsgEarthNet.uav[60] utilizationFail 0
scalar OsgEarthNet.uav[60] simulationTime 259200
scalar OsgEarthNet.uav[61] utilizationSecMission 17828.059753355
scalar OsgEarthNet.uav[61] utilizationSecMaintenance 13039.110482914
scalar OsgEarthNet.uav[61] utilizationSecCharge 121140
scalar OsgEarthNet.uav[61] utilizationSecIdle 107192.82876373
scalar OsgEarthNet.uav[61] utilizationEnergyMission 89775.847896576
scalar OsgEarthNet.uav[61] utilizationEnergyMaintenance 61605.216346741
scalar OsgEarthNet.uav[61] utilizationEnergyCharge 149862.22900391
scalar OsgEarthNet.uav[61] utilizationEnergyOverdrawMission 0
scalar OsgEarthNet.uav[61] utilizationEnergyOverdrawMaintenance 0
scalar OsgEarthNet.uav[61] utilizationCountMissions 38
scalar OsgEarthNet.uav[61] utilizationCountManeuversMission 652
scalar OsgEarthNet.uav[61] utilizationCountManeuversMaintenance 76
scalar OsgEarthNet.uav[61] utilizationCountChargeState 38
scalar OsgEarthNet.uav[61] utilizationCountOverdrawnAfterMission 0
scalar OsgEarthNet.uav[61] utilizationCountIdleState 39
scalar OsgEarthNet.uav[61] utilizationFail 0
scalar OsgEarthNet.uav[61] simulationTime 259200
scalar OsgEarthNet.uav[62] utilizationSecMission 42156.55845904
scalar OsgEarthNet.uav[62] utilizationSecMaintenance 17567.499941382
scalar OsgEarthNet.uav[62] utilizationSecCharge 197043.93859958
scalar OsgEarthNet.uav[62] utilizationSecIdle 2432.002
scalar OsgEarthNet.uav[62] utilizationEnergyMission 204659.47932816
scalar OsgEarthNet.uav[62] utilizationEnergyMaintenance 82192.32648468
scalar OsgEarthNet.uav[62] utilizationEnergyCharge 281358.15692139
scalar OsgEarthNet.uav[62] utilizationEnergyOverdrawMission 0
scalar OsgEarthNet.uav[62] utilizationEnergyOverdrawMaintenance 0
scalar OsgEarthNet.uav[62] utilizationCountMissions 62
scalar OsgEarthNet.uav[62] utilizationCountManeuversMission 1305
scalar OsgEarthNet.uav[62] utilizationCountManeuversMaintenance 124
scalar OsgEarthNet.uav[62] utilizationCountChargeState 62
scalar OsgEarthNet.uav[62] utilizationCountOverdrawnAfterMission 0
scalar OsgEarthNet.uav[62] utilizationCountIdleState 11
scalar OsgEarthNet.uav[62] utilizationFail 0
scalar OsgEarthNet.uav[62] simulationTime 259200
scalar OsgEarthNet.uav[63] utilizationSecMission 15546.251525803
scalar OsgEarthNet.uav[63] utilizationSecMaintenance 9722.6659957064
scalar OsgEarthNet.uav[63] utilizationSecCharge 94690
scalar OsgEarthNet.uav[63] utilizationSecIdle 139241.08147849
scalar OsgEarthNet.uav[63] utilizationEnergyMission 75568.494060516
scalar OsgEarthNet.uav[63] utilizationEnergyMaintenance 46196.408615112
scalar OsgEarthNet.uav[63] utilizationEnergyCharge 121957.87158203
scalar OsgEarthNet.uav[63] utilizationEnergyOverdrawMission 0
scalar OsgEarthNet.uav[63] utilizationEnergyOverdrawMaintenance 0
scalar OsgEarthNet.uav[63] utilizationCountMissions 27
scalar OsgEarthNet.uav[63] utilizationCountManeuversMission 517
scalar OsgEarthNet.uav[63] utilizationCountManeuversMaintenance 54
scalar OsgEarthNet.uav[63] utilizationCountChargeState 27
scalar OsgEarthNet.uav[63] utilizationCountOverdrawnAfterMission 0
scalar OsgEarthNet.uav[63] utilizationCountIdleState 28
scalar OsgEarthNet.uav[63] utilizationFail 0
scalar OsgEarthNet.uav[63] simulationTime 259200
scalar OsgEarthNet.uav[64] utilizationSecMission 19030.098714624
scalar OsgEarthNet.uav[64] utilizationSecMaintenance 12867.891285376
scalar OsgEarthNet.uav[64] utilizationSecCharge 122010
scalar OsgEarthNet.uav[64] utilizationSecIdle 105292.009
scalar OsgEarthNet.uav[64] utilizationEnergyMission 92454.75610733
scalar OsgEarthNet.uav[64] utilizationEnergyMaintenance 61300.360605576
scalar OsgEarthNet.uav[64] utilizationEnergyCharge 152757.96142578
scalar OsgEarthNet.uav[64] utilizationEnergyOverdrawMission 0
scalar OsgEarthNet.uav[64] utilizationEnergyOverdrawMaintenance 0
scalar OsgEarthNet.uav[64] utilizationCountMissions 38
scalar OsgEarthNet.uav[64] utilizationCountManeuversMission 661
scalar OsgEarthNet.uav[64] utilizationCountManeuversMaintenance 76
scalar OsgEarthNet.uav[64] utilizationCountChargeState 37
scalar OsgEarthNet.uav[64] utilizationCountOverdrawnAfterMission 0
scalar OsgEarthNet.uav[64] utilizationCountIdleState 38
scalar OsgEarthNet.uav[64] utilizationFail 0
scalar OsgEarthNet.uav[64] simulationTime 259200
scalar OsgEarthNet.uav[65] utilizationSecMission 41324.844345297
scalar OsgEarthNet.uav[65] utilizationSecMaintenance 18813.131493176
scalar OsgEarthNet.uav[65] utilizationSecCharge 198660.02316153
[...]
scalar OsgEarthNet.uav[81] utilizationEnergyOverdrawMaintenance 0
scalar OsgEarthNet.uav[81] utilizationCountMissions 39
scalar OsgEarthNet.uav[81] utilizationCountManeuversMission 605
scalar OsgEarthNet.uav[81] utilizationCountManeuversMaintenance 78
scalar OsgEarthNet.uav[81] utilizationCountChargeState 39
scalar OsgEarthNet.uav[81] utilizationCountOverdrawnAfterMission 0
scalar OsgEarthNet.uav[81] utilizationCountIdleState 40
scalar OsgEarthNet.uav[81] utilizationFail 0
scalar OsgEarthNet.uav[81] simulationTime 259200
scalar OsgEarthNet.uav[82] utilizationSecMission 42168.983040848
scalar OsgEarthNet.uav[82] utilizationSecMaintenance 17249.109077947
scalar OsgEarthNet.uav[82] utilizationSecCharge 196411.19882412
scalar OsgEarthNet.uav[82] utilizationSecIdle 3370.7080570899
scalar OsgEarthNet.uav[82] utilizationEnergyMission 202965.4287262
scalar OsgEarthNet.uav[82] utilizationEnergyMaintenance 79219.221553803
scalar OsgEarthNet.uav[82] utilizationEnergyCharge 280825.88378906
scalar OsgEarthNet.uav[82] utilizationEnergyOverdrawMission 0
scalar OsgEarthNet.uav[82] utilizationEnergyOverdrawMaintenance 0
scalar OsgEarthNet.uav[82] utilizationCountMissions 61
scalar OsgEarthNet.uav[82] utilizationCountManeuversMission 1282
scalar OsgEarthNet.uav[82] utilizationCountManeuversMaintenance 122
scalar OsgEarthNet.uav[82] utilizationCountChargeState 61
scalar OsgEarthNet.uav[82] utilizationCountOverdrawnAfterMission 0
scalar OsgEarthNet.uav[82] utilizationCountIdleState 8
scalar OsgEarthNet.uav[82] utilizationFail 0
scalar OsgEarthNet.uav[82] simulationTime 259200
scalar OsgEarthNet.uav[83] utilizationSecMission 19368.682179919
scalar OsgEarthNet.uav[83] utilizationSecMaintenance 11583.397481741
scalar OsgEarthNet.uav[83] utilizationSecCharge 115300
scalar OsgEarthNet.uav[83] utilizationSecIdle 112947.91933834
scalar OsgEarthNet.uav[83] utilizationEnergyMission 93986.243358612
scalar OsgEarthNet.uav[83] utilizationEnergyMaintenance 54914.764293671
scalar OsgEarthNet.uav[83] utilizationEnergyCharge 148368.93359375
scalar OsgEarthNet.uav[83] utilizationEnergyOverdrawMission 0
scalar OsgEarthNet.uav[83] utilizationEnergyOverdrawMaintenance 0
scalar OsgEarthNet.uav[83] utilizationCountMissions 33
scalar OsgEarthNet.uav[83] utilizationCountManeuversMission 621
scalar OsgEarthNet.uav[83] utilizationCountManeuversMaintenance 65
scalar OsgEarthNet.uav[83] utilizationCountChargeState 33
scalar OsgEarthNet.uav[83] utilizationCountOverdrawnAfterMission 0
scalar OsgEarthNet.uav[83] utilizationCountIdleState 34
scalar OsgEarthNet.uav[83] utilizationFail 0
scalar OsgEarthNet.uav[83] simulationTime 259200
scalar OsgEarthNet.uav[84] utilizationSecMission 21105.539942514
scalar OsgEarthNet.uav[84] utilizationSecMaintenance 13923.646327811
scalar OsgEarthNet.uav[84] utilizationSecCharge 135548.80972967
scalar OsgEarthNet.uav[84] utilizationSecIdle 88622.003
scalar OsgEarthNet.uav[84] utilizationEnergyMission 102393.97675323
scalar OsgEarthNet.uav[84] utilizationEnergyMaintenance 65736.991405487
scalar OsgEarthNet.uav[84] utilizationEnergyCharge 170067.00073242
scalar OsgEarthNet.uav[84] utilizationEnergyOverdrawMission 0
scalar OsgEarthNet.uav[84] utilizationEnergyOverdrawMaintenance 0
scalar OsgEarthNet.uav[84] utilizationCountMissions 41
scalar OsgEarthNet.uav[84] utilizationCountManeuversMission 706
scalar OsgEarthNet.uav[84] utilizationCountManeuversMaintenance 82
scalar OsgEarthNet.uav[84] utilizationCountChargeState 41
scalar OsgEarthNet.uav[84] utilizationCountOverdrawnAfterMission 0
scalar OsgEarthNet.uav[84] utilizationCountIdleState 41
scalar OsgEarthNet.uav[84] utilizationFail 0
scalar OsgEarthNet.uav[84] simulationTime 259200
scalar OsgEarthNet.uav[85] utilizationSecMission 42152.904911166
scalar OsgEarthNet.uav[85] utilizationSecMaintenance 18287.105728848
scalar OsgEarthNet.uav[85] utilizationSecCharge 197557.98735999
scalar OsgEarthNet.uav[85] utilizationSecIdle 1202.001
scalar OsgEarthNet.uav[85] utilizationEnergyMission 202581.46735382
scalar OsgEarthNet.uav[85] utilizationEnergyMaintenance 85175.266113281
scalar OsgEarthNet.uav[85] utilizationEnergyCharge 284900.3684082
scalar OsgEarthNet.uav[85] utilizationEnergyOverdrawMission 0
scalar OsgEarthNet.uav[85] utilizationEnergyOverdrawMaintenance 0
scalar OsgEarthNet.uav[85] utilizationCountMissions 62
scalar OsgEarthNet.uav[85] utilizationCountManeuversMission 1209
scalar OsgEarthNet.uav[85] utilizationCountManeuversMaintenance 124
scalar OsgEarthNet.uav[85] utilizationCountChargeState 62
scalar OsgEarthNet.uav[85] utilizationCountOverdrawnAfterMission 0
scalar OsgEarthNet.uav[85] utilizationCountIdleState 7
scalar OsgEarthNet.uav[85] utilizationFail 0
scalar OsgEarthNet.uav[85] simulationTime 259200
scalar OsgEarthNet.uav[86] utilizationSecMission 17439.649771453
scalar OsgEarthNet.uav[86] utilizationSecMaintenance 11658.348228547
scalar OsgEarthNet.uav[86] utilizationSecCharge 108590
scalar OsgEarthNet.uav[86] utilizationSecIdle 121512.001
scalar OsgEarthNet.uav[86] utilizationEnergyMission 84141.113817873
scalar OsgEarthNet.uav[86] utilizationEnergyMaintenance 55151.906787872
scalar OsgEarthNet.uav[86] utilizationEnergyCharge 139796.16357422
scalar OsgEarthNet.uav[86] utilizationEnergyOverdrawMission 0
scalar OsgEarthNet.uav[86] utilizationEnergyOverdrawMaintenance 0
scalar OsgEarthNet.uav[86] utilizationCountMissions 31
scalar OsgEarthNet.uav[86] utilizationCountManeuversMission 605
scalar OsgEarthNet.uav[86] utilizationCountManeuversMaintenance 63
scalar OsgEarthNet.uav[86] utilizationCountChargeState 31
scalar OsgEarthNet.uav[86] utilizationCountOverdrawnAfterMission 0
scalar OsgEarthNet.uav[86] utilizationCountIdleState 32
scalar OsgEarthNet.uav[86] utilizationFail 0
scalar OsgEarthNet.uav[86] simulationTime 259200
scalar OsgEarthNet.uav[87] utilizationSecMission 20695.085507397
scalar OsgEarthNet.uav[87] utilizationSecMaintenance 13148.502073428
scalar OsgEarthNet.uav[87] utilizationSecCharge 129730
scalar OsgEarthNet.uav[87] utilizationSecIdle 95626.411419175
scalar OsgEarthNet.uav[87] utilizationEnergyMission 101472.71441269
scalar OsgEarthNet.uav[87] utilizationEnergyMaintenance 62150.320953369
scalar OsgEarthNet.uav[87] utilizationEnergyCharge 163358.40063477
scalar OsgEarthNet.uav[87] utilizationEnergyOverdrawMission 0
scalar OsgEarthNet.uav[87] utilizationEnergyOverdrawMaintenance 0
scalar OsgEarthNet.uav[87] utilizationCountMissions 39
scalar OsgEarthNet.uav[87] utilizationCountManeuversMission 671
scalar OsgEarthNet.uav[87] utilizationCountManeuversMaintenance 78
scalar OsgEarthNet.uav[87] utilizationCountChargeState 39
scalar OsgEarthNet.uav[87] utilizationCountOverdrawnAfterMission 0
scalar OsgEarthNet.uav[87] utilizationCountIdleState 40
scalar OsgEarthNet.uav[87] utilizationFail 0
scalar OsgEarthNet.uav[87] simulationTime 259200
scalar OsgEarthNet.uav[88] utilizationSecMission 42561.658249109
scalar OsgEarthNet.uav[88] utilizationSecMaintenance 17003.838368202
scalar OsgEarthNet.uav[88] utilizationSecCharge 196534.87130202
scalar OsgEarthNet.uav[88] utilizationSecIdle 3099.6310806652
scalar OsgEarthNet.uav[88] utilizationEnergyMission 205475.6473999
scalar OsgEarthNet.uav[88] utilizationEnergyMaintenance 78106.096626282
scalar OsgEarthNet.uav[88] utilizationEnergyCharge 279750.99291992
scalar OsgEarthNet.uav[88] utilizationEnergyOverdrawMission 0
scalar OsgEarthNet.uav[88] utilizationEnergyOverdrawMaintenance 0
scalar OsgEarthNet.uav[88] utilizationCountMissions 61
scalar OsgEarthNet.uav[88] utilizationCountManeuversMission 1126
scalar OsgEarthNet.uav[88] utilizationCountManeuversMaintenance 122
scalar OsgEarthNet.uav[88] utilizationCountChargeState 61
scalar OsgEarthNet.uav[88] utilizationCountOverdrawnAfterMission 0
scalar OsgEarthNet.uav[88] utilizationCountIdleState 8
scalar OsgEarthNet.uav[88] utilizationFail 0
scalar OsgEarthNet.uav[88] simulationTime 259200
scalar OsgEarthNet.uav[89] utilizationSecMission 17775.884411973
scalar OsgEarthNet.uav[89] utilizationSecMaintenance 12322.105588027
scalar OsgEarthNet.uav[89] utilizationSecCharge 109850
scalar OsgEarthNet.uav[89] utilizationSecIdle 119252.009
scalar OsgEarthNet.uav[89] utilizationEnergyMission 87208.288127899
scalar OsgEarthNet.uav[89] utilizationEnergyMaintenance 58871.341665236
scalar OsgEarthNet.uav[89] utilizationEnergyCharge 142118.56201172
scalar OsgEarthNet.uav[89] utilizationEnergyOverdrawMission 0
scalar OsgEarthNet.uav[89] utilizationEnergyOverdrawMaintenance 0
scalar OsgEarthNet.uav[89] utilizationCountMissions 32
scalar OsgEarthNet.uav[89] utilizationCountManeuversMission 650
scalar OsgEarthNet.uav[89] utilizationCountManeuversMaintenance 64
scalar OsgEarthNet.uav[89] utilizationCountChargeState 31
scalar OsgEarthNet.uav[89] utilizationCountOverdrawnAfterMission 0
scalar OsgEarthNet.uav[89] utilizationCountIdleState 32
scalar OsgEarthNet.uav[89] utilizationFail 0
scalar OsgEarthNet.uav[89] simulationTime 259200
scalar OsgEarthNet.uav[90] utilizationSecMission 17347.501830963
scalar OsgEarthNet.uav[90] utilizationSecMaintenance 10721.173466224
scalar OsgEarthNet.uav[90] utilizationSecCharge 105570
scalar OsgEarthNet.uav[90] utilizationSecIdle 125561.32370281
scalar OsgEarthNet.uav[90] utilizationEnergyMission 84213.290958405
scalar OsgEarthNet.uav[90] utilizationEnergyMaintenance 51076.55127716
scalar OsgEarthNet.uav[90] utilizationEnergyCharge 136022.30566406
scalar OsgEarthNet.uav[90] utilizationEnergyOverdrawMission 0
scalar OsgEarthNet.uav[90] utilizationEnergyOverdrawMaintenance 0
scalar OsgEarthNet.uav[90] utilizationCountMissions 30
scalar OsgEarthNet.uav[90] utilizationCountManeuversMission 555
scalar OsgEarthNet.uav[90] utilizationCountManeuversMaintenance 60
scalar OsgEarthNet.uav[90] utilizationCountChargeState 30
scalar OsgEarthNet.uav[90] utilizationCountOverdrawnAfterMission 0
scalar OsgEarthNet.uav[90] utilizationCountIdleState 31
scalar OsgEarthNet.uav[90] utilizationFail 0
scalar OsgEarthNet.uav[90] simulationTime 259200
scalar OsgEarthNet.uav[91] utilizationSecMission 19093.253345991
scalar OsgEarthNet.uav[91] utilizationSecMaintenance 13300.229851381
scalar OsgEarthNet.uav[91] utilizationSecCharge 124236.49552848
scalar OsgEarthNet.uav[91] utilizationSecIdle 102570.02027414
scalar OsgEarthNet.uav[91] utilizationEnergyMission 92896.521583557
scalar OsgEarthNet.uav[91] utilizationEnergyMaintenance 63134.901958466
scalar OsgEarthNet.uav[91] utilizationEnergyCharge 153355.73608398
scalar OsgEarthNet.uav[91] utilizationEnergyOverdrawMission 0
scalar OsgEarthNet.uav[91] utilizationEnergyOverdrawMaintenance 0
scalar OsgEarthNet.uav[91] utilizationCountMissions 40
scalar OsgEarthNet.uav[91] utilizationCountManeuversMission 619
scalar OsgEarthNet.uav[91] utilizationCountManeuversMaintenance 80
scalar OsgEarthNet.uav[91] utilizationCountChargeState 40
scalar OsgEarthNet.uav[91] utilizationCountOverdrawnAfterMission 0
scalar OsgEarthNet.uav[91] utilizationCountIdleState 40
scalar OsgEarthNet.uav[91] utilizationFail 0
scalar OsgEarthNet.uav[91] simulationTime 259200
scalar OsgEarthNet.uav[92] utilizationSecMission 42095.451066555
scalar OsgEarthNet.uav[92] utilizationSecMaintenance 17662.544933445
scalar OsgEarthNet.uav[92] utilizationSecCharge 197320
scalar OsgEarthNet.uav[92] utilizationSecIdle 2122.003
scalar OsgEarthNet.uav[92] utilizationEnergyMission 202963.57105637
scalar OsgEarthNet.uav[92] utilizationEnergyMaintenance 81140.61822341
scalar OsgEarthNet.uav[92] utilizationEnergyCharge 281921.18408203
scalar OsgEarthNet.uav[92] utilizationEnergyOverdrawMission 0
scalar OsgEarthNet.uav[92] utilizationEnergyOverdrawMaintenance 0
scalar OsgEarthNet.uav[92] utilizationCountMissions 62
scalar OsgEarthNet.uav[92] utilizationCountManeuversMission 1285
scalar OsgEarthNet.uav[92] utilizationCountManeuversMaintenance 124
scalar OsgEarthNet.uav[92] utilizationCountChargeState 61
scalar OsgEarthNet.uav[92] utilizationCountOverdrawnAfterMission 0
scalar OsgEarthNet.uav[92] utilizationCountIdleState 6
scalar OsgEarthNet.uav[92] utilizationFail 0
scalar OsgEarthNet.uav[92] simulationTime 259200
scalar OsgEarthNet.uav[93] utilizationSecMission 19346.876678383
scalar OsgEarthNet.uav[93] utilizationSecMaintenance 13125.210295217
scalar OsgEarthNet.uav[93] utilizationSecCharge 119555.9120264
scalar OsgEarthNet.uav[93] utilizationSecIdle 107172
scalar OsgEarthNet.uav[93] utilizationEnergyMission 95162.337036133
scalar OsgEarthNet.uav[93] utilizationEnergyMaintenance 63152.809085846
scalar OsgEarthNet.uav[93] utilizationEnergyCharge 154317.44091797
scalar OsgEarthNet.uav[93] utilizationEnergyOverdrawMission 0
scalar OsgEarthNet.uav[93] utilizationEnergyOverdrawMaintenance 0
scalar OsgEarthNet.uav[93] utilizationCountMissions 35
scalar OsgEarthNet.uav[93] utilizationCountManeuversMission 681
scalar OsgEarthNet.uav[93] utilizationCountManeuversMaintenance 70
scalar OsgEarthNet.uav[93] utilizationCountChargeState 35
scalar OsgEarthNet.uav[93] utilizationCountOverdrawnAfterMission 0
scalar OsgEarthNet.uav[93] utilizationCountIdleState 35
scalar OsgEarthNet.uav[93] utilizationFail 0
scalar OsgEarthNet.uav[93] simulationTime 259200
scalar OsgEarthNet.uav[94] utilizationSecMission 20433.650884693
scalar OsgEarthNet.uav[94] utilizationSecMaintenance 14909.093273015
scalar OsgEarthNet.uav[94] utilizationSecCharge 141030
scalar OsgEarthNet.uav[94] utilizationSecIdle 82827.254842293
scalar OsgEarthNet.uav[94] utilizationEnergyMission 98404.841300964
scalar OsgEarthNet.uav[94] utilizationEnergyMaintenance 71711.573219299
scalar OsgEarthNet.uav[94] utilizationEnergyCharge 170890.32714844
scalar OsgEarthNet.uav[94] utilizationEnergyOverdrawMission 0
scalar OsgEarthNet.uav[94] utilizationEnergyOverdrawMaintenance 0
scalar OsgEarthNet.uav[94] utilizationCountMissions 46
scalar OsgEarthNet.uav[94] utilizationCountManeuversMission 637
scalar OsgEarthNet.uav[94] utilizationCountManeuversMaintenance 91
scalar OsgEarthNet.uav[94] utilizationCountChargeState 46
scalar OsgEarthNet.uav[94] utilizationCountOverdrawnAfterMission 0
scalar OsgEarthNet.uav[94] utilizationCountIdleState 47
scalar OsgEarthNet.uav[94] utilizationFail 0
scalar OsgEarthNet.uav[94] simulationTime 259200
scalar OsgEarthNet.uav[95] utilizationSecMission 43031.122563263
scalar OsgEarthNet.uav[95] utilizationSecMaintenance 17213.623926878
scalar OsgEarthNet.uav[95] utilizationSecCharge 198433.25250986
scalar OsgEarthNet.uav[95] utilizationSecIdle 522
scalar OsgEarthNet.uav[95] utilizationEnergyMission 206738.96973786
scalar OsgEarthNet.uav[95] utilizationEnergyMaintenance 78842.985160828
scalar OsgEarthNet.uav[95] utilizationEnergyCharge 285915.31689453
scalar OsgEarthNet.uav[95] utilizationEnergyOverdrawMission 0
scalar OsgEarthNet.uav[95] utilizationEnergyOverdrawMaintenance 0
scalar OsgEarthNet.uav[95] utilizationCountMissions 62
scalar OsgEarthNet.uav[95] utilizationCountManeuversMission 1223
scalar OsgEarthNet.uav[95] utilizationCountManeuversMaintenance 123
scalar OsgEarthNet.uav[95] utilizationCountChargeState 62
scalar OsgEarthNet.uav[95] utilizationCountOverdrawnAfterMission 0
scalar OsgEarthNet.uav[95] utilizationCountIdleState 7
scalar OsgEarthNet.uav[95] utilizationFail 0
scalar OsgEarthNet.uav[95] simulationTime 259200
scalar OsgEarthNet.uav[96] utilizationSecMission 18138.155023577
scalar OsgEarthNet.uav[96] utilizationSecMaintenance 11279.826976423
scalar OsgEarthNet.uav[96] utilizationSecCharge 108460
scalar OsgEarthNet.uav[96] utilizationSecIdle 121322.017
scalar OsgEarthNet.uav[96] utilizationEnergyMission 89075.289368608
scalar OsgEarthNet.uav[96] utilizationEnergyMaintenance 53419.415973663
scalar OsgEarthNet.uav[96] utilizationEnergyCharge 139707.75537109
scalar OsgEarthNet.uav[96] utilizationEnergyOverdrawMission 0
scalar OsgEarthNet.uav[96] utilizationEnergyOverdrawMaintenance 0
scalar OsgEarthNet.uav[96] utilizationCountMissions 31
scalar OsgEarthNet.uav[96] utilizationCountManeuversMission 600
scalar OsgEarthNet.uav[96] utilizationCountManeuversMaintenance 63
scalar OsgEarthNet.uav[96] utilizationCountChargeState 31
scalar OsgEarthNet.uav[96] utilizationCountOverdrawnAfterMission 0
scalar OsgEarthNet.uav[96] utilizationCountIdleState 32
scalar OsgEarthNet.uav[96] utilizationFail 0
scalar OsgEarthNet.uav[96] simulationTime 259200
scalar OsgEarthNet.uav[97] utilizationSecMission 22846.655612612
scalar OsgEarthNet.uav[97] utilizationSecMaintenance 16351.242868144
scalar OsgEarthNet.uav[97] utilizationSecCharge 150977.48862973
scalar OsgEarthNet.uav[97] utilizationSecIdle 69024.611889516
scalar OsgEarthNet.uav[97] utilizationEnergyMission 112281.09634018
scalar OsgEarthNet.uav[97] utilizationEnergyMaintenance 77901.923870087
scalar OsgEarthNet.uav[97] utilizationEnergyCharge 186891.08081055
scalar OsgEarthNet.uav[97] utilizationEnergyOverdrawMission 0
scalar OsgEarthNet.uav[97] utilizationEnergyOverdrawMaintenance 0
scalar OsgEarthNet.uav[97] utilizationCountMissions 48
scalar OsgEarthNet.uav[97] utilizationCountManeuversMission 799
scalar OsgEarthNet.uav[97] utilizationCountManeuversMaintenance 96
scalar OsgEarthNet.uav[97] utilizationCountChargeState 48
scalar OsgEarthNet.uav[97] utilizationCountOverdrawnAfterMission 0
scalar OsgEarthNet.uav[97] utilizationCountIdleState 48
scalar OsgEarthNet.uav[97] utilizationFail 0
scalar OsgEarthNet.uav[97] simulationTime 259200
scalar OsgEarthNet.uav[98] utilizationSecMission 42197.58654683
scalar OsgEarthNet.uav[98] utilizationSecMaintenance 17276.956799767
scalar OsgEarthNet.uav[98] utilizationSecCharge 196790
scalar OsgEarthNet.uav[98] utilizationSecIdle 2935.4556534032
scalar OsgEarthNet.uav[98] utilizationEnergyMission 201577.62680551
scalar OsgEarthNet.uav[98] utilizationEnergyMaintenance 79294.516716003
scalar OsgEarthNet.uav[98] utilizationEnergyCharge 278978.36230469
scalar OsgEarthNet.uav[98] utilizationEnergyOverdrawMission 0
scalar OsgEarthNet.uav[98] utilizationEnergyOverdrawMaintenance 0
scalar OsgEarthNet.uav[98] utilizationCountMissions 61
scalar OsgEarthNet.uav[98] utilizationCountManeuversMission 1213
scalar OsgEarthNet.uav[98] utilizationCountManeuversMaintenance 123
scalar OsgEarthNet.uav[98] utilizationCountChargeState 61
scalar OsgEarthNet.uav[98] utilizationCountOverdrawnAfterMission 0
scalar OsgEarthNet.uav[98] utilizationCountIdleState 8
scalar OsgEarthNet.uav[98] utilizationFail 0
scalar OsgEarthNet.uav[98] simulationTime 259200
scalar OsgEarthNet.uav[99] utilizationSecMission 18566.876678383
scalar OsgEarthNet.uav[99] utilizationSecMaintenance 12317.714163487
scalar OsgEarthNet.uav[99] utilizationSecCharge 112783.40515813
scalar OsgEarthNet.uav[99] utilizationSecIdle 115532.003
scalar OsgEarthNet.uav[99] utilizationEnergyMission 90940.186206818
scalar OsgEarthNet.uav[99] utilizationEnergyMaintenance 58506.763622284
scalar OsgEarthNet.uav[99] utilizationEnergyCharge 145693.89581299
scalar OsgEarthNet.uav[99] utilizationEnergyOverdrawMission 0
scalar OsgEarthNet.uav[99] utilizationEnergyOverdrawMaintenance 0
scalar OsgEarthNet.uav[99] utilizationCountMissions 33
scalar OsgEarthNet.uav[99] utilizationCountManeuversMission 642
scalar OsgEarthNet.uav[99] utilizationCountManeuversMaintenance 66
scalar OsgEarthNet.uav[99] utilizationCountChargeState 33
scalar OsgEarthNet.uav[99] utilizationCountOverdrawnAfterMission 0
scalar OsgEarthNet.uav[99] utilizationCountIdleState 33
scalar OsgEarthNet.uav[99] utilizationFail 0
scalar OsgEarthNet.uav[99] simulationTime 259200
scalar OsgEarthNet.cs[0] usedPower 4002924.3871734
scalar OsgEarthNet.cs[0] chargedPower 4002924.3871734
scalar OsgEarthNet.cs[0] chargedMobileNodes 876
scalar OsgEarthNet.cs[0] reservations 889
scalar OsgEarthNet.cs[1] usedPower 4151555.9716795
scalar OsgEarthNet.cs[1] chargedPower 4151555.9716795
scalar OsgEarthNet.cs[1] chargedMobileNodes 1035
scalar OsgEarthNet.cs[1] reservations 1049
scalar OsgEarthNet.cs[2] usedPower 8680763.2984159
scalar OsgEarthNet.cs[2] chargedPower 8680763.2984159
scalar OsgEarthNet.cs[2] chargedMobileNodes 222
scalar OsgEarthNet.cs[2] reservations 1901

