version 2
run Szenario_Hotel_Gabelbach-220-20180712-06:27:27-17460
attr configname Szenario_Hotel_Gabelbach
attr datetime 20180712-06:27:27
attr experiment Szenario_Hotel_Gabelbach
attr inifile omnetpp.ini
attr iterationvars "$replM=2, $biWeight=0.35, $replSearchM=1, $numUAVs=100"
attr iterationvarsf replM=2,biWeight=0.35,replSearchM=1,numUAVs=100-
attr measurement "$replM=2, $biWeight=0.35, $replSearchM=1, $numUAVs=100"
attr network OsgEarthNet
attr processid 17460
attr repetition 4
attr replication #4
attr resultdir results
attr runnumber 220
attr seedset 220
itervar biWeight 0.35
itervar numUAVs 100
itervar replM 2
itervar replSearchM 1
param *.osgEarthScene.scene "\"Szenario_Hotel_Gabelbach.earth\""
param *.playgroundLatitude 50.6830269
param *.playgroundLongitude 10.8538055
param *.playgroundWidth 3500m
param *.playgroundHeight 3500m
param *.cs[0].posX 3537m
param *.cs[0].posY 965m
param *.cs[0].posZ 538m
param *.cs[1].posX 312m
param *.cs[1].posY 1262m
param *.cs[1].posZ 539m
param *.cs[2].posX 2185m
param *.cs[2].posY 3026m
param *.cs[2].posZ 777m
param *.cs[3].posX 10m
param *.cs[3].posY 2200m
param *.cs[3].posZ 560m
param *.cs[4].posX 750m
param *.cs[4].posY 200m
param *.cs[4].posZ 540m
param *.cs[5].posX 2450m
param *.cs[5].posY 180m
param *.cs[5].posZ 524m
param *.cs[6].posX 3140m
param *.cs[6].posY 1790m
param *.cs[6].posZ 606m
param *.numCSs 3
param *.uav[*].replacementMethod 2
param *.uav[*].weightedSumWeight 0.35
param *.missionControl.replacementSearchMethod 1
param *.numUAVs 100
param *.numCSs 3
param *.numUAVs 100
param *.*.timeStep 10s
param *.uav[*].commandPreviewCommandCount 20
param *.missionControl.missionFiles "\"missions\\\\Szenario_WB_Hotel_Gabelbach_Mission_Hotel.waypoints,missions\\\\Szenario_WB_Hotel_Gabelbach_Mission_Kickelhahn.waypoints,missions\\\\Szenario_WB_Hotel_Gabelbach_Mission_Ilmenau_Sportplatz.waypoints,missions\\\\Szenario_WB_Hotel_Gabelbach_Mission_Manebach_Mitte.waypoints,missions\\\\Szenario_WB_Hotel_Gabelbach_Mission_Manebach_Sued.waypoints,missions\\\\Szenario_WB_Hotel_Gabelbach_Hover_HoheSchlaufe.waypoints,missions\\\\Szenario_WB_Hotel_Gabelbach_Hover_Kickelhahn.waypoints,missions\\\\Szenario_WB_Hotel_Gabelbach_Hover_Gabelbachskopf.waypoints,missions\\\\Szenario_WB_Hotel_Gabelbach_Hover_Dachskopf.waypoints\""
param *.uav[0].startX 3537m
param *.uav[0].startY 965m
param *.uav[0].startZ 539m
param *.uav[1].startX 312m
param *.uav[1].startY 1262m
param *.uav[1].startZ 540m
param *.uav[2].startX 2185m
param *.uav[2].startY 3026m
param *.uav[2].startZ 778m
param *.uav[3].startX 3537m
param *.uav[3].startY 965m
param *.uav[3].startZ 539m
param *.uav[4].startX 312m
param *.uav[4].startY 1262m
param *.uav[4].startZ 540m
param *.uav[5].startX 2185m
param *.uav[5].startY 3026m
param *.uav[5].startZ 778m
param *.uav[6].startX 3537m
param *.uav[6].startY 965m
param *.uav[6].startZ 539m
param *.uav[7].startX 312m
param *.uav[7].startY 1262m
param *.uav[7].startZ 540m
param *.uav[8].startX 2185m
param *.uav[8].startY 3026m
param *.uav[8].startZ 778m
param *.uav[9].startX 3537m
param *.uav[9].startY 965m
param *.uav[9].startZ 539m
param *.uav[10].startX 3537m
param *.uav[10].startY 965m
param *.uav[10].startZ 539m
param *.uav[11].startX 312m
param *.uav[11].startY 1262m
param *.uav[11].startZ 540m
param *.uav[12].startX 2185m
param *.uav[12].startY 3026m
param *.uav[12].startZ 778m
param *.uav[13].startX 3537m
param *.uav[13].startY 965m
param *.uav[13].startZ 539m
param *.uav[14].startX 312m
param *.uav[14].startY 1262m
param *.uav[14].startZ 540m
param *.uav[15].startX 2185m
param *.uav[15].startY 3026m
param *.uav[15].startZ 778m
param *.uav[16].startX 3537m
param *.uav[16].startY 965m
param *.uav[16].startZ 539m
param *.uav[17].startX 312m
param *.uav[17].startY 1262m
param *.uav[17].startZ 540m
param *.uav[18].startX 2185m
param *.uav[18].startY 3026m
param *.uav[18].startZ 778m
param *.uav[19].startX 3537m
param *.uav[19].startY 965m
param *.uav[19].startZ 539m
param *.uav[20].startX 3537m
param *.uav[20].startY 965m
param *.uav[20].startZ 539m
param *.uav[21].startX 312m
param *.uav[21].startY 1262m
param *.uav[21].startZ 540m
param *.uav[22].startX 2185m
param *.uav[22].startY 3026m
param *.uav[22].startZ 778m
param *.uav[23].startX 3537m
param *.uav[23].startY 965m
param *.uav[23].startZ 539m
param *.uav[24].startX 312m
param *.uav[24].startY 1262m
param *.uav[24].startZ 540m
param *.uav[25].startX 2185m
param *.uav[25].startY 3026m
param *.uav[25].startZ 778m
param *.uav[26].startX 3537m
param *.uav[26].startY 965m
param *.uav[26].startZ 539m
param *.uav[27].startX 312m
param *.uav[27].startY 1262m
param *.uav[27].startZ 540m
param *.uav[28].startX 2185m
param *.uav[28].startY 3026m
param *.uav[28].startZ 778m
param *.uav[29].startX 3537m
param *.uav[29].startY 965m
param *.uav[29].startZ 539m
param *.uav[30].startX 3537m
param *.uav[30].startY 965m
param *.uav[30].startZ 539m
param *.uav[31].startX 312m
param *.uav[31].startY 1262m
param *.uav[31].startZ 540m
param *.uav[32].startX 2185m
param *.uav[32].startY 3026m
param *.uav[32].startZ 778m
param *.uav[33].startX 3537m
param *.uav[33].startY 965m
param *.uav[33].startZ 539m
param *.uav[34].startX 312m
param *.uav[34].startY 1262m
param *.uav[34].startZ 540m
param *.uav[35].startX 2185m
param *.uav[35].startY 3026m
param *.uav[35].startZ 778m
param *.uav[36].startX 3537m
param *.uav[36].startY 965m
param *.uav[36].startZ 539m
param *.uav[37].startX 312m
param *.uav[37].startY 1262m
param *.uav[37].startZ 540m
param *.uav[38].startX 2185m
param *.uav[38].startY 3026m
param *.uav[38].startZ 778m
param *.uav[39].startX 3537m
param *.uav[39].startY 965m
param *.uav[39].startZ 539m
param *.uav[40].startX 3537m
param *.uav[40].startY 965m
param *.uav[40].startZ 539m
param *.uav[41].startX 312m
param *.uav[41].startY 1262m
param *.uav[41].startZ 540m
param *.uav[42].startX 2185m
param *.uav[42].startY 3026m
param *.uav[42].startZ 778m
param *.uav[43].startX 3537m
param *.uav[43].startY 965m
param *.uav[43].startZ 539m
param *.uav[44].startX 312m
param *.uav[44].startY 1262m
param *.uav[44].startZ 540m
param *.uav[45].startX 2185m
param *.uav[45].startY 3026m
param *.uav[45].startZ 778m
param *.uav[46].startX 3537m
param *.uav[46].startY 965m
param *.uav[46].startZ 539m
param *.uav[47].startX 312m
param *.uav[47].startY 1262m
param *.uav[47].startZ 540m
param *.uav[48].startX 2185m
param *.uav[48].startY 3026m
param *.uav[48].startZ 778m
param *.uav[49].startX 3537m
param *.uav[49].startY 965m
param *.uav[49].startZ 539m
param *.uav[50].startX 3537m
param *.uav[50].startY 965m
param *.uav[50].startZ 539m
param *.uav[51].startX 312m
param *.uav[51].startY 1262m
param *.uav[51].startZ 540m
param *.uav[52].startX 2185m
param *.uav[52].startY 3026m
param *.uav[52].startZ 778m
param *.uav[53].startX 3537m
param *.uav[53].startY 965m
param *.uav[53].startZ 539m
param *.uav[54].startX 312m
param *.uav[54].startY 1262m
param *.uav[54].startZ 540m
param *.uav[55].startX 2185m
param *.uav[55].startY 3026m
param *.uav[55].startZ 778m
param *.uav[56].startX 3537m
param *.uav[56].startY 965m
param *.uav[56].startZ 539m
param *.uav[57].startX 312m
param *.uav[57].startY 1262m
param *.uav[57].startZ 540m
param *.uav[58].startX 2185m
param *.uav[58].startY 3026m
param *.uav[58].startZ 778m
param *.uav[59].startX 3537m
param *.uav[59].startY 965m
param *.uav[59].startZ 539m
param *.uav[60].startX 3537m
param *.uav[60].startY 965m
param *.uav[60].startZ 539m
param *.uav[61].startX 312m
param *.uav[61].startY 1262m
param *.uav[61].startZ 540m
param *.uav[62].startX 2185m
param *.uav[62].startY 3026m
param *.uav[62].startZ 778m
param *.uav[63].startX 3537m
param *.uav[63].startY 965m
param *.uav[63].startZ 539m
param *.uav[64].startX 312m
param *.uav[64].startY 1262m
param *.uav[64].startZ 540m
param *.uav[65].startX 2185m
param *.uav[65].startY 3026m
param *.uav[65].startZ 778m
param *.uav[66].startX 3537m
param *.uav[66].startY 965m
param *.uav[66].startZ 539m
param *.uav[67].startX 312m
param *.uav[67].startY 1262m
param *.uav[67].startZ 540m
param *.uav[68].startX 2185m
param *.uav[68].startY 3026m
param *.uav[68].startZ 778m
param *.uav[69].startX 3537m
param *.uav[69].startY 965m
param *.uav[69].startZ 539m
param *.uav[70].startX 3537m
param *.uav[70].startY 965m
param *.uav[70].startZ 539m
param *.uav[71].startX 312m
param *.uav[71].startY 1262m
param *.uav[71].startZ 540m
param *.uav[72].startX 2185m
param *.uav[72].startY 3026m
param *.uav[72].startZ 778m
param *.uav[73].startX 3537m
param *.uav[73].startY 965m
param *.uav[73].startZ 539m
param *.uav[74].startX 312m
param *.uav[74].startY 1262m
param *.uav[74].startZ 540m
param *.uav[75].startX 2185m
param *.uav[75].startY 3026m
param *.uav[75].startZ 778m
param *.uav[76].startX 3537m
param *.uav[76].startY 965m
param *.uav[76].startZ 539m
param *.uav[77].startX 312m
param *.uav[77].startY 1262m
param *.uav[77].startZ 540m
param *.uav[78].startX 2185m
param *.uav[78].startY 3026m
param *.uav[78].startZ 778m
param *.uav[79].startX 3537m
param *.uav[79].startY 965m
param *.uav[79].startZ 539m
param *.uav[80].startX 3537m
param *.uav[80].startY 965m
param *.uav[80].startZ 539m
param *.uav[81].startX 312m
param *.uav[81].startY 1262m
param *.uav[81].startZ 540m
param *.uav[82].startX 2185m
param *.uav[82].startY 3026m
param *.uav[82].startZ 778m
param *.uav[83].startX 3537m
param *.uav[83].startY 965m
param *.uav[83].startZ 539m
param *.uav[84].startX 312m
param *.uav[84].startY 1262m
param *.uav[84].startZ 540m
param *.uav[85].startX 2185m
param *.uav[85].startY 3026m
param *.uav[85].startZ 778m
param *.uav[86].startX 3537m
param *.uav[86].startY 965m
param *.uav[86].startZ 539m
param *.uav[87].startX 312m
param *.uav[87].startY 1262m
param *.uav[87].startZ 540m
param *.uav[88].startX 2185m
param *.uav[88].startY 3026m
param *.uav[88].startZ 778m
param *.uav[89].startX 3537m
param *.uav[89].startY 965m
param *.uav[89].startZ 539m
param *.uav[90].startX 3537m
param *.uav[90].startY 965m
param *.uav[90].startZ 539m
param *.uav[91].startX 312m
param *.uav[91].startY 1262m
param *.uav[91].startZ 540m
param *.uav[92].startX 2185m
param *.uav[92].startY 3026m
param *.uav[92].startZ 778m
param *.uav[93].startX 3537m
param *.uav[93].startY 965m
param *.uav[93].startZ 539m
param *.uav[94].startX 312m
param *.uav[94].startY 1262m
param *.uav[94].startZ 540m
param *.uav[95].startX 2185m
param *.uav[95].startY 3026m
param *.uav[95].startZ 778m
param *.uav[96].startX 3537m
param *.uav[96].startY 965m
param *.uav[96].startZ 539m
param *.uav[97].startX 312m
param *.uav[97].startY 1262m
param *.uav[97].startZ 540m
param *.uav[98].startX 2185m
param *.uav[98].startY 3026m
param *.uav[98].startZ 778m
param *.uav[99].startX 3537m
param *.uav[99].startY 965m
param *.uav[99].startZ 539m
param *.osgEarthScene.scene "\"boston.earth\""
param *.playgroundLatitude 42.3558
param *.playgroundLongitude -71.0677
param *.playgroundWidth 400m
param *.playgroundHeight 200m
param *.channelController.connectionColor "\"#0000FF40\""
param *.channelController.showConnections false
param *.uav[*].modelURL "\"quadrocopter.small.obj.15.scale.0,0,90.rot\""
param *.uav[*].labelColor "\"#FF7C00CC\""
param *.uav[*].label2Color "\"#FF7C00EE\""
param *.uav[*].batteryCapacity 5200mAh
param *.uav[*].batteryRemaining uav[index].batteryCapacity
param *.uav[*].predictionQuantile 0.95
param *.uav[*].replacementMethod 2
param *.uav[*].weightedSumWeight 0.5
param *.cs[*].modelURL "\"chargingstation_v1.osgt.2.scale.0,0,0.rot.0,0,-15e-1.trans\""
param *.cs[*].spotsWaiting 999
param *.cs[*].spotsCharging 999
param *.cs[*].chargeEffectivenessPercentage 100
param *.cs[*].nonLinearPhaseStartPercentage 85
param *.cs[*].chargeCurrent 6.0A
param *.cs[*].prioritizeFastCharge true
param *.missionControl.replacementSearchMethod 0
param *.*.timeStep 9s

scalar OsgEarthNet.uav[0] utilizationSecMission 500
scalar OsgEarthNet.uav[0] utilizationSecMaintenance 447.1303002674
scalar OsgEarthNet.uav[0] utilizationSecCharge 3440
scalar OsgEarthNet.uav[0] utilizationSecIdle 254812.86869973
scalar OsgEarthNet.uav[0] utilizationEnergyMission 2584.6543464661
scalar OsgEarthNet.uav[0] utilizationEnergyMaintenance 2142.88904953
scalar OsgEarthNet.uav[0] utilizationEnergyCharge 4383.3642578125
scalar OsgEarthNet.uav[0] utilizationEnergyOverdrawMission 0
scalar OsgEarthNet.uav[0] utilizationEnergyOverdrawMaintenance 0
scalar OsgEarthNet.uav[0] utilizationCountMissions 1
scalar OsgEarthNet.uav[0] utilizationCountManeuversMission 25
scalar OsgEarthNet.uav[0] utilizationCountManeuversMaintenance 2
scalar OsgEarthNet.uav[0] utilizationCountChargeState 1
scalar OsgEarthNet.uav[0] utilizationCountOverdrawnAfterMission 0
scalar OsgEarthNet.uav[0] utilizationCountIdleState 2
scalar OsgEarthNet.uav[0] utilizationFail 0
scalar OsgEarthNet.uav[0] simulationTime 259200
scalar OsgEarthNet.uav[1] utilizationSecMission 520
scalar OsgEarthNet.uav[1] utilizationSecMaintenance 395.21104267299
scalar OsgEarthNet.uav[1] utilizationSecCharge 3630
scalar OsgEarthNet.uav[1] utilizationSecIdle 254654.78795733
scalar OsgEarthNet.uav[1] utilizationEnergyMission 2688.9116668701
scalar OsgEarthNet.uav[1] utilizationEnergyMaintenance 1851.2501945496
scalar OsgEarthNet.uav[1] utilizationEnergyCharge 4679.822265625
scalar OsgEarthNet.uav[1] utilizationEnergyOverdrawMission 0
scalar OsgEarthNet.uav[1] utilizationEnergyOverdrawMaintenance 0
scalar OsgEarthNet.uav[1] utilizationCountMissions 1
scalar OsgEarthNet.uav[1] utilizationCountManeuversMission 26
scalar OsgEarthNet.uav[1] utilizationCountManeuversMaintenance 2
scalar OsgEarthNet.uav[1] utilizationCountChargeState 1
scalar OsgEarthNet.uav[1] utilizationCountOverdrawnAfterMission 0
scalar OsgEarthNet.uav[1] utilizationCountIdleState 2
scalar OsgEarthNet.uav[1] utilizationFail 0
scalar OsgEarthNet.uav[1] simulationTime 259200
scalar OsgEarthNet.uav[2] utilizationSecMission 42575.005698819
scalar OsgEarthNet.uav[2] utilizationSecMaintenance 17293.638300752
scalar OsgEarthNet.uav[2] utilizationSecCharge 197802.80194248
scalar OsgEarthNet.uav[2] utilizationSecIdle 1528.5530579468
scalar OsgEarthNet.uav[2] utilizationEnergyMission 200982.51469421
scalar OsgEarthNet.uav[2] utilizationEnergyMaintenance 80373.693401337
scalar OsgEarthNet.uav[2] utilizationEnergyCharge 280847.20605469
scalar OsgEarthNet.uav[2] utilizationEnergyOverdrawMission 0
scalar OsgEarthNet.uav[2] utilizationEnergyOverdrawMaintenance 0
scalar OsgEarthNet.uav[2] utilizationCountMissions 61
scalar OsgEarthNet.uav[2] utilizationCountManeuversMission 1098
scalar OsgEarthNet.uav[2] utilizationCountManeuversMaintenance 122
scalar OsgEarthNet.uav[2] utilizationCountChargeState 61
scalar OsgEarthNet.uav[2] utilizationCountOverdrawnAfterMission 0
scalar OsgEarthNet.uav[2] utilizationCountIdleState 9
scalar OsgEarthNet.uav[2] utilizationFail 0
scalar OsgEarthNet.uav[2] simulationTime 259200
scalar OsgEarthNet.uav[3] utilizationSecMission 460
scalar OsgEarthNet.uav[3] utilizationSecMaintenance 447.1303002674
scalar OsgEarthNet.uav[3] utilizationSecCharge 3570
scalar OsgEarthNet.uav[3] utilizationSecIdle 254722.86869973
scalar OsgEarthNet.uav[3] utilizationEnergyMission 2239.9483985901
scalar OsgEarthNet.uav[3] utilizationEnergyMaintenance 2152.5457267761
scalar OsgEarthNet.uav[3] utilizationEnergyCharge 4586.0361328125
scalar OsgEarthNet.uav[3] utilizationEnergyOverdrawMission 0
scalar OsgEarthNet.uav[3] utilizationEnergyOverdrawMaintenance 0
scalar OsgEarthNet.uav[3] utilizationCountMissions 1
scalar OsgEarthNet.uav[3] utilizationCountManeuversMission 23
scalar OsgEarthNet.uav[3] utilizationCountManeuversMaintenance 2
scalar OsgEarthNet.uav[3] utilizationCountChargeState 1
scalar OsgEarthNet.uav[3] utilizationCountOverdrawnAfterMission 0
scalar OsgEarthNet.uav[3] utilizationCountIdleState 2
scalar OsgEarthNet.uav[3] utilizationFail 0
scalar OsgEarthNet.uav[3] simulationTime 259200
scalar OsgEarthNet.uav[4] utilizationSecMission 213.40226662093
scalar OsgEarthNet.uav[4] utilizationSecMaintenance 292.41944606525
scalar OsgEarthNet.uav[4] utilizationSecCharge 2340
scalar OsgEarthNet.uav[4] utilizationSecIdle 256354.17728731
scalar OsgEarthNet.uav[4] utilizationEnergyMission 1016.008682251
scalar OsgEarthNet.uav[4] utilizationEnergyMaintenance 1354.1772079468
scalar OsgEarthNet.uav[4] utilizationEnergyCharge 2370.1892089844
scalar OsgEarthNet.uav[4] utilizationEnergyOverdrawMission 0
scalar OsgEarthNet.uav[4] utilizationEnergyOverdrawMaintenance 0
scalar OsgEarthNet.uav[4] utilizationCountMissions 1
scalar OsgEarthNet.uav[4] utilizationCountManeuversMission 3
scalar OsgEarthNet.uav[4] utilizationCountManeuversMaintenance 2
scalar OsgEarthNet.uav[4] utilizationCountChargeState 1
scalar OsgEarthNet.uav[4] utilizationCountOverdrawnAfterMission 0
scalar OsgEarthNet.uav[4] utilizationCountIdleState 2
scalar OsgEarthNet.uav[4] utilizationFail 0
scalar OsgEarthNet.uav[4] simulationTime 259200
scalar OsgEarthNet.uav[5] utilizationSecMission 40847.167226409
scalar OsgEarthNet.uav[5] utilizationSecMaintenance 18050.826773591
scalar OsgEarthNet.uav[5] utilizationSecCharge 197280
scalar OsgEarthNet.uav[5] utilizationSecIdle 3022.005
scalar OsgEarthNet.uav[5] utilizationEnergyMission 200230.38272281
scalar OsgEarthNet.uav[5] utilizationEnergyMaintenance 82985.96585846
scalar OsgEarthNet.uav[5] utilizationEnergyCharge 280362.49023438
scalar OsgEarthNet.uav[5] utilizationEnergyOverdrawMission 0
scalar OsgEarthNet.uav[5] utilizationEnergyOverdrawMaintenance 0
scalar OsgEarthNet.uav[5] utilizationCountMissions 61
scalar OsgEarthNet.uav[5] utilizationCountManeuversMission 1320
scalar OsgEarthNet.uav[5] utilizationCountManeuversMaintenance 123
scalar OsgEarthNet.uav[5] utilizationCountChargeState 61
scalar OsgEarthNet.uav[5] utilizationCountOverdrawnAfterMission 0
scalar OsgEarthNet.uav[5] utilizationCountIdleState 5
scalar OsgEarthNet.uav[5] utilizationFail 0
scalar OsgEarthNet.uav[5] simulationTime 259200
scalar OsgEarthNet.uav[6] utilizationSecMission 2761.8754577408
scalar OsgEarthNet.uav[6] utilizationSecMaintenance 1026.6889306765
scalar OsgEarthNet.uav[6] utilizationSecCharge 13720
scalar OsgEarthNet.uav[6] utilizationSecIdle 241691.43461158
scalar OsgEarthNet.uav[6] utilizationEnergyMission 13075.965827942
scalar OsgEarthNet.uav[6] utilizationEnergyMaintenance 4782.711807251
scalar OsgEarthNet.uav[6] utilizationEnergyCharge 17575.798339844
scalar OsgEarthNet.uav[6] utilizationEnergyOverdrawMission 0
scalar OsgEarthNet.uav[6] utilizationEnergyOverdrawMaintenance 0
scalar OsgEarthNet.uav[6] utilizationCountMissions 4
scalar OsgEarthNet.uav[6] utilizationCountManeuversMission 60
scalar OsgEarthNet.uav[6] utilizationCountManeuversMaintenance 8
scalar OsgEarthNet.uav[6] utilizationCountChargeState 4
scalar OsgEarthNet.uav[6] utilizationCountOverdrawnAfterMission 0
scalar OsgEarthNet.uav[6] utilizationCountIdleState 5
scalar OsgEarthNet.uav[6] utilizationFail 0
scalar OsgEarthNet.uav[6] simulationTime 259200
scalar OsgEarthNet.uav[7] utilizationSecMission 540
scalar OsgEarthNet.uav[7] utilizationSecMaintenance 395.21104267299
scalar OsgEarthNet.uav[7] utilizationSecCharge 3570
scalar OsgEarthNet.uav[7] utilizationSecIdle 254694.78795733
scalar OsgEarthNet.uav[7] utilizationEnergyMission 2409.8732185364
scalar OsgEarthNet.uav[7] utilizationEnergyMaintenance 1841.3598747253
scalar OsgEarthNet.uav[7] utilizationEnergyCharge 4590.7309570312
scalar OsgEarthNet.uav[7] utilizationEnergyOverdrawMission 0
scalar OsgEarthNet.uav[7] utilizationEnergyOverdrawMaintenance 0
scalar OsgEarthNet.uav[7] utilizationCountMissions 1
scalar OsgEarthNet.uav[7] utilizationCountManeuversMission 27
scalar OsgEarthNet.uav[7] utilizationCountManeuversMaintenance 2
scalar OsgEarthNet.uav[7] utilizationCountChargeState 1
scalar OsgEarthNet.uav[7] utilizationCountOverdrawnAfterMission 0
scalar OsgEarthNet.uav[7] utilizationCountIdleState 2
scalar OsgEarthNet.uav[7] utilizationFail 0
scalar OsgEarthNet.uav[7] simulationTime 259200
scalar OsgEarthNet.uav[8] utilizationSecMission 41069.843812688
scalar OsgEarthNet.uav[8] utilizationSecMaintenance 18525.084835973
scalar OsgEarthNet.uav[8] utilizationSecCharge 198783.07035134
scalar OsgEarthNet.uav[8] utilizationSecIdle 822
scalar OsgEarthNet.uav[8] utilizationEnergyMission 200824.97902862
scalar OsgEarthNet.uav[8] utilizationEnergyMaintenance 85293.137073517
scalar OsgEarthNet.uav[8] utilizationEnergyCharge 284349.47021484
scalar OsgEarthNet.uav[8] utilizationEnergyOverdrawMission 0
scalar OsgEarthNet.uav[8] utilizationEnergyOverdrawMaintenance 0
scalar OsgEarthNet.uav[8] utilizationCountMissions 62
scalar OsgEarthNet.uav[8] utilizationCountManeuversMission 1352
scalar OsgEarthNet.uav[8] utilizationCountManeuversMaintenance 123
scalar OsgEarthNet.uav[8] utilizationCountChargeState 62
scalar OsgEarthNet.uav[8] utilizationCountOverdrawnAfterMission 0
scalar OsgEarthNet.uav[8] utilizationCountIdleState 8
scalar OsgEarthNet.uav[8] utilizationFail 0
scalar OsgEarthNet.uav[8] simulationTime 259200
scalar OsgEarthNet.uav[9] utilizationSecMission 2392.1334964914
scalar OsgEarthNet.uav[9] utilizationSecMaintenance 643.56384658047
scalar OsgEarthNet.uav[9] utilizationSecCharge 10590
scalar OsgEarthNet.uav[9] utilizationSecIdle 245574.30165693
scalar OsgEarthNet.uav[9] utilizationEnergyMission 10825.395301819
scalar OsgEarthNet.uav[9] utilizationEnergyMaintenance 2978.81590271
scalar OsgEarthNet.uav[9] utilizationEnergyCharge 13689.380371094
scalar OsgEarthNet.uav[9] utilizationEnergyOverdrawMission 0
scalar OsgEarthNet.uav[9] utilizationEnergyOverdrawMaintenance 0
scalar OsgEarthNet.uav[9] utilizationCountMissions 3
scalar OsgEarthNet.uav[9] utilizationCountManeuversMission 37
scalar OsgEarthNet.uav[9] utilizationCountManeuversMaintenance 6
scalar OsgEarthNet.uav[9] utilizationCountChargeState 3
scalar OsgEarthNet.uav[9] utilizationCountOverdrawnAfterMission 0
scalar OsgEarthNet.uav[9] utilizationCountIdleState 4
scalar OsgEarthNet.uav[9] utilizationFail 0
scalar OsgEarthNet.uav[9] simulationTime 259200
scalar OsgEarthNet.uav[10] utilizationSecMission 1720.6251525803
scalar OsgEarthNet.uav[10] utilizationSecMaintenance 1087.7482372534
scalar OsgEarthNet.uav[10] utilizationSecCharge 10290
scalar OsgEarthNet.uav[10] utilizationSecIdle 246101.62561017
scalar OsgEarthNet.uav[10] utilizationEnergyMission 8699.018447876
scalar OsgEarthNet.uav[10] utilizationEnergyMaintenance 5227.489566803
scalar OsgEarthNet.uav[10] utilizationEnergyCharge 13120.452636719
scalar OsgEarthNet.uav[10] utilizationEnergyOverdrawMission 0
scalar OsgEarthNet.uav[10] utilizationEnergyOverdrawMaintenance 0
scalar OsgEarthNet.uav[10] utilizationCountMissions 3
scalar OsgEarthNet.uav[10] utilizationCountManeuversMission 60
scalar OsgEarthNet.uav[10] utilizationCountManeuversMaintenance 6
scalar OsgEarthNet.uav[10] utilizationCountChargeState 3
scalar OsgEarthNet.uav[10] utilizationCountOverdrawnAfterMission 0
scalar OsgEarthNet.uav[10] utilizationCountIdleState 4
scalar OsgEarthNet.uav[10] utilizationFail 0
scalar OsgEarthNet.uav[10] simulationTime 259200
scalar OsgEarthNet.uav[11] utilizationSecMission 1080
scalar OsgEarthNet.uav[11] utilizationSecMaintenance 790.69889465529
scalar OsgEarthNet.uav[11] utilizationSecCharge 7210
scalar OsgEarthNet.uav[11] utilizationSecIdle 250119.30010534
scalar OsgEarthNet.uav[11] utilizationEnergyMission 5287.4132461548
scalar OsgEarthNet.uav[11] utilizationEnergyMaintenance 3803.8452987671
scalar OsgEarthNet.uav[11] utilizationEnergyCharge 9310.1435546875
scalar OsgEarthNet.uav[11] utilizationEnergyOverdrawMission 0
scalar OsgEarthNet.uav[11] utilizationEnergyOverdrawMaintenance 0
scalar OsgEarthNet.uav[11] utilizationCountMissions 2
scalar OsgEarthNet.uav[11] utilizationCountManeuversMission 54
scalar OsgEarthNet.uav[11] utilizationCountManeuversMaintenance 4
scalar OsgEarthNet.uav[11] utilizationCountChargeState 2
scalar OsgEarthNet.uav[11] utilizationCountOverdrawnAfterMission 0
scalar OsgEarthNet.uav[11] utilizationCountIdleState 3
scalar OsgEarthNet.uav[11] utilizationFail 0
scalar OsgEarthNet.uav[11] simulationTime 259200
scalar OsgEarthNet.uav[12] utilizationSecMission 40878.504379505
scalar OsgEarthNet.uav[12] utilizationSecMaintenance 17901.504902555
scalar OsgEarthNet.uav[12] utilizationSecCharge 196607.98471794
scalar OsgEarthNet.uav[12] utilizationSecIdle 3812.005
scalar OsgEarthNet.uav[12] utilizationEnergyMission 196145.25847626
scalar OsgEarthNet.uav[12] utilizationEnergyMaintenance 82843.844173431
scalar OsgEarthNet.uav[12] utilizationEnergyCharge 280265.98779297
scalar OsgEarthNet.uav[12] utilizationEnergyOverdrawMission 0
scalar OsgEarthNet.uav[12] utilizationEnergyOverdrawMaintenance 0
scalar OsgEarthNet.uav[12] utilizationCountMissions 61
scalar OsgEarthNet.uav[12] utilizationCountManeuversMission 1263
scalar OsgEarthNet.uav[12] utilizationCountManeuversMaintenance 122
scalar OsgEarthNet.uav[12] utilizationCountChargeState 61
scalar OsgEarthNet.uav[12] utilizationCountOverdrawnAfterMission 0
scalar OsgEarthNet.uav[12] utilizationCountIdleState 6
scalar OsgEarthNet.uav[12] utilizationFail 0
scalar OsgEarthNet.uav[12] simulationTime 259200
scalar OsgEarthNet.uav[13] utilizationSecMission 2310.8831913308
scalar OsgEarthNet.uav[13] utilizationSecMaintenance 1589.4552863143
scalar OsgEarthNet.uav[13] utilizationSecCharge 14400
scalar OsgEarthNet.uav[13] utilizationSecIdle 240899.66052235
scalar OsgEarthNet.uav[13] utilizationEnergyMission 11968.760929108
scalar OsgEarthNet.uav[13] utilizationEnergyMaintenance 7509.1539459228
scalar OsgEarthNet.uav[13] utilizationEnergyCharge 18696.547363281
scalar OsgEarthNet.uav[13] utilizationEnergyOverdrawMission 0
scalar OsgEarthNet.uav[13] utilizationEnergyOverdrawMaintenance 0
scalar OsgEarthNet.uav[13] utilizationCountMissions 4
scalar OsgEarthNet.uav[13] utilizationCountManeuversMission 85
scalar OsgEarthNet.uav[13] utilizationCountManeuversMaintenance 8
scalar OsgEarthNet.uav[13] utilizationCountChargeState 4
scalar OsgEarthNet.uav[13] utilizationCountOverdrawnAfterMission 0
scalar OsgEarthNet.uav[13] utilizationCountIdleState 5
scalar OsgEarthNet.uav[13] utilizationFail 0
scalar OsgEarthNet.uav[13] simulationTime 259200
scalar OsgEarthNet.uav[14] utilizationSecMission 16762.385311148
scalar OsgEarthNet.uav[14] utilizationSecMaintenance 10414.203389996
scalar OsgEarthNet.uav[14] utilizationSecCharge 101481.41029886
scalar OsgEarthNet.uav[14] utilizationSecIdle 130542
scalar OsgEarthNet.uav[14] utilizationEnergyMission 82266.470630646
scalar OsgEarthNet.uav[14] utilizationEnergyMaintenance 49624.08549881
scalar OsgEarthNet.uav[14] utilizationEnergyCharge 129097.92919922
scalar OsgEarthNet.uav[14] utilizationEnergyOverdrawMission 0
scalar OsgEarthNet.uav[14] utilizationEnergyOverdrawMaintenance 0
scalar OsgEarthNet.uav[14] utilizationCountMissions 31
scalar OsgEarthNet.uav[14] utilizationCountManeuversMission 534
scalar OsgEarthNet.uav[14] utilizationCountManeuversMaintenance 62
scalar OsgEarthNet.uav[14] utilizationCountChargeState 31
scalar OsgEarthNet.uav[14] utilizationCountOverdrawnAfterMission 0
scalar OsgEarthNet.uav[14] utilizationCountIdleState 31
scalar OsgEarthNet.uav[14] utilizationFail 0
scalar OsgEarthNet.uav[14] simulationTime 259200
scalar OsgEarthNet.uav[15] utilizationSecMission 41938.426119266
scalar OsgEarthNet.uav[15] utilizationSecMaintenance 17837.815508669
scalar OsgEarthNet.uav[15] utilizationSecCharge 198261.75637206
scalar OsgEarthNet.uav[15] utilizationSecIdle 1162.001
scalar OsgEarthNet.uav[15] utilizationEnergyMission 202150.93444443
scalar OsgEarthNet.uav[15] utilizationEnergyMaintenance 81312.998512268
scalar OsgEarthNet.uav[15] utilizationEnergyCharge 281397.51635742
scalar OsgEarthNet.uav[15] utilizationEnergyOverdrawMission 0
scalar OsgEarthNet.uav[15] utilizationEnergyOverdrawMaintenance 0
scalar OsgEarthNet.uav[15] utilizationCountMissions 62
scalar OsgEarthNet.uav[15] utilizationCountManeuversMission 1271
scalar OsgEarthNet.uav[15] utilizationCountManeuversMaintenance 124
scalar OsgEarthNet.uav[15] utilizationCountChargeState 62
scalar OsgEarthNet.uav[15] utilizationCountOverdrawnAfterMission 0
scalar OsgEarthNet.uav[15] utilizationCountIdleState 10
scalar OsgEarthNet.uav[15] utilizationFail 0
scalar OsgEarthNet.uav[15] simulationTime 259200
scalar OsgEarthNet.uav[16] utilizationSecMission 2051.5083439111
scalar OsgEarthNet.uav[16] utilizationSecMaintenance 897.80936329376
scalar OsgEarthNet.uav[16] utilizationSecCharge 10680
scalar OsgEarthNet.uav[16] utilizationSecIdle 245570.6812928
scalar OsgEarthNet.uav[16] utilizationEnergyMission 9829.6426124573
scalar OsgEarthNet.uav[16] utilizationEnergyMaintenance 4170.765548706
scalar OsgEarthNet.uav[16] utilizationEnergyCharge 13849.538574219
scalar OsgEarthNet.uav[16] utilizationEnergyOverdrawMission 0
scalar OsgEarthNet.uav[16] utilizationEnergyOverdrawMaintenance 0
scalar OsgEarthNet.uav[16] utilizationCountMissions 3
scalar OsgEarthNet.uav[16] utilizationCountManeuversMission 46
scalar OsgEarthNet.uav[16] utilizationCountManeuversMaintenance 6
scalar OsgEarthNet.uav[16] utilizationCountChargeState 3
scalar OsgEarthNet.uav[16] utilizationCountOverdrawnAfterMission 0
scalar OsgEarthNet.uav[16] utilizationCountIdleState 4
scalar OsgEarthNet.uav[16] utilizationFail 0
scalar OsgEarthNet.uav[16] simulationTime 259200
scalar OsgEarthNet.uav[17] utilizationSecMission 15541.462019976
scalar OsgEarthNet.uav[17] utilizationSecMaintenance 11607.57299435
scalar OsgEarthNet.uav[17] utilizationSecCharge 105010
scalar OsgEarthNet.uav[17] utilizationSecIdle 127040.96398567
scalar OsgEarthNet.uav[17] utilizationEnergyMission 74098.629608154
scalar OsgEarthNet.uav[17] utilizationEnergyMaintenance 55348.27905658
scalar OsgEarthNet.uav[17] utilizationEnergyCharge 128598.32641602
scalar OsgEarthNet.uav[17] utilizationEnergyOverdrawMission 0
scalar OsgEarthNet.uav[17] utilizationEnergyOverdrawMaintenance 0
scalar OsgEarthNet.uav[17] utilizationCountMissions 35
scalar OsgEarthNet.uav[17] utilizationCountManeuversMission 530
scalar OsgEarthNet.uav[17] utilizationCountManeuversMaintenance 70
scalar OsgEarthNet.uav[17] utilizationCountChargeState 34
scalar OsgEarthNet.uav[17] utilizationCountOverdrawnAfterMission 0
scalar OsgEarthNet.uav[17] utilizationCountIdleState 35
scalar OsgEarthNet.uav[17] utilizationFail 0
scalar OsgEarthNet.uav[17] simulationTime 259200
scalar OsgEarthNet.uav[18] utilizationSecMission 40448.156603069
scalar OsgEarthNet.uav[18] utilizationSecMaintenance 18745.564810156
scalar OsgEarthNet.uav[18] utilizationSecCharge 197149.57222423
scalar OsgEarthNet.uav[18] utilizationSecIdle 2856.705362542
scalar OsgEarthNet.uav[18] utilizationEnergyMission 196544.47642136
scalar OsgEarthNet.uav[18] utilizationEnergyMaintenance 86340.103748322
scalar OsgEarthNet.uav[18] utilizationEnergyCharge 282220.06347656
scalar OsgEarthNet.uav[18] utilizationEnergyOverdrawMission 0
scalar OsgEarthNet.uav[18] utilizationEnergyOverdrawMaintenance 0
scalar OsgEarthNet.uav[18] utilizationCountMissions 62
scalar OsgEarthNet.uav[18] utilizationCountManeuversMission 1221
scalar OsgEarthNet.uav[18] utilizationCountManeuversMaintenance 124
scalar OsgEarthNet.uav[18] utilizationCountChargeState 62
scalar OsgEarthNet.uav[18] utilizationCountOverdrawnAfterMission 0
scalar OsgEarthNet.uav[18] utilizationCountIdleState 6
scalar OsgEarthNet.uav[18] utilizationFail 0
scalar OsgEarthNet.uav[18] simulationTime 259200
scalar OsgEarthNet.uav[19] utilizationSecMission 2580.6251525803
scalar OsgEarthNet.uav[19] utilizationSecMaintenance 2069.9790129218
scalar OsgEarthNet.uav[19] utilizationSecCharge 17520
scalar OsgEarthNet.uav[19] utilizationSecIdle 237029.3948345
scalar OsgEarthNet.uav[19] utilizationEnergyMission 12842.737110138
scalar OsgEarthNet.uav[19] utilizationEnergyMaintenance 10088.367366791
scalar OsgEarthNet.uav[19] utilizationEnergyCharge 22599.73046875
scalar OsgEarthNet.uav[19] utilizationEnergyOverdrawMission 0
scalar OsgEarthNet.uav[19] utilizationEnergyOverdrawMaintenance 0
scalar OsgEarthNet.uav[19] utilizationCountMissions 5
scalar OsgEarthNet.uav[19] utilizationCountManeuversMission 103
scalar OsgEarthNet.uav[19] utilizationCountManeuversMaintenance 10
scalar OsgEarthNet.uav[19] utilizationCountChargeState 5
scalar OsgEarthNet.uav[19] utilizationCountOverdrawnAfterMission 0
scalar OsgEarthNet.uav[19] utilizationCountIdleState 6
scalar OsgEarthNet.uav[19] utilizationFail 0
scalar OsgEarthNet.uav[19] simulationTime 259200
scalar OsgEarthNet.uav[20] utilizationSecMission 2320
scalar OsgEarthNet.uav[20] utilizationSecMaintenance 2236.8572076661
scalar OsgEarthNet.uav[20] utilizationSecCharge 17480
scalar OsgEarthNet.uav[20] utilizationSecIdle 237163.14179233
scalar OsgEarthNet.uav[20] utilizationEnergyMission 12256.230453491
scalar OsgEarthNet.uav[20] utilizationEnergyMaintenance 10480.229000092
scalar OsgEarthNet.uav[20] utilizationEnergyCharge 22442.225097656
scalar OsgEarthNet.uav[20] utilizationEnergyOverdrawMission 0
scalar OsgEarthNet.uav[20] utilizationEnergyOverdrawMaintenance 0
scalar OsgEarthNet.uav[20] utilizationCountMissions 5
scalar OsgEarthNet.uav[20] utilizationCountManeuversMission 116
scalar OsgEarthNet.uav[20] utilizationCountManeuversMaintenance 10
scalar OsgEarthNet.uav[20] utilizationCountChargeState 5
scalar OsgEarthNet.uav[20] utilizationCountOverdrawnAfterMission 0
scalar OsgEarthNet.uav[20] utilizationCountIdleState 6
scalar OsgEarthNet.uav[20] utilizationFail 0
scalar OsgEarthNet.uav[20] simulationTime 259200
scalar OsgEarthNet.uav[21] utilizationSecMission 13885.111921852
scalar OsgEarthNet.uav[21] utilizationSecMaintenance 10387.559906248
scalar OsgEarthNet.uav[21] utilizationSecCharge 94723.658993912
scalar OsgEarthNet.uav[21] utilizationSecIdle 140203.66817799
scalar OsgEarthNet.uav[21] utilizationEnergyMission 67125.221866608
scalar OsgEarthNet.uav[21] utilizationEnergyMaintenance 49341.282318115
scalar OsgEarthNet.uav[21] utilizationEnergyCharge 116165.26171875
scalar OsgEarthNet.uav[21] utilizationEnergyOverdrawMission 0
scalar OsgEarthNet.uav[21] utilizationEnergyOverdrawMaintenance 0
scalar OsgEarthNet.uav[21] utilizationCountMissions 31
scalar OsgEarthNet.uav[21] utilizationCountManeuversMission 477
scalar OsgEarthNet.uav[21] utilizationCountManeuversMaintenance 62
scalar OsgEarthNet.uav[21] utilizationCountChargeState 31
scalar OsgEarthNet.uav[21] utilizationCountOverdrawnAfterMission 0
scalar OsgEarthNet.uav[21] utilizationCountIdleState 31
scalar OsgEarthNet.uav[21] utilizationFail 0
scalar OsgEarthNet.uav[21] simulationTime 259200
scalar OsgEarthNet.uav[22] utilizationSecMission 41303.406917321
scalar OsgEarthNet.uav[22] utilizationSecMaintenance 18202.75640979
scalar OsgEarthNet.uav[22] utilizationSecCharge 197971.83467289
scalar OsgEarthNet.uav[22] utilizationSecIdle 1722.001
scalar OsgEarthNet.uav[22] utilizationEnergyMission 200054.77556229
scalar OsgEarthNet.uav[22] utilizationEnergyMaintenance 83882.588474274
scalar OsgEarthNet.uav[22] utilizationEnergyCharge 281848.57641602
scalar OsgEarthNet.uav[22] utilizationEnergyOverdrawMission 0
scalar OsgEarthNet.uav[22] utilizationEnergyOverdrawMaintenance 0
scalar OsgEarthNet.uav[22] utilizationCountMissions 62
scalar OsgEarthNet.uav[22] utilizationCountManeuversMission 1215
scalar OsgEarthNet.uav[22] utilizationCountManeuversMaintenance 124
scalar OsgEarthNet.uav[22] utilizationCountChargeState 62
scalar OsgEarthNet.uav[22] utilizationCountOverdrawnAfterMission 0
scalar OsgEarthNet.uav[22] utilizationCountIdleState 12
scalar OsgEarthNet.uav[22] utilizationFail 0
scalar OsgEarthNet.uav[22] simulationTime 259200
scalar OsgEarthNet.uav[23] utilizationSecMission 2140.6251525803
scalar OsgEarthNet.uav[23] utilizationSecMaintenance 1622.5472860721
scalar OsgEarthNet.uav[23] utilizationSecCharge 14150
scalar OsgEarthNet.uav[23] utilizationSecIdle 241286.82656135
scalar OsgEarthNet.uav[23] utilizationEnergyMission 10400.795578003
scalar OsgEarthNet.uav[23] utilizationEnergyMaintenance 7588.7642059326
scalar OsgEarthNet.uav[23] utilizationEnergyCharge 18246.398925781
scalar OsgEarthNet.uav[23] utilizationEnergyOverdrawMission 0
scalar OsgEarthNet.uav[23] utilizationEnergyOverdrawMaintenance 0
scalar OsgEarthNet.uav[23] utilizationCountMissions 4
scalar OsgEarthNet.uav[23] utilizationCountManeuversMission 81
scalar OsgEarthNet.uav[23] utilizationCountManeuversMaintenance 8
scalar OsgEarthNet.uav[23] utilizationCountChargeState 4
scalar OsgEarthNet.uav[23] utilizationCountOverdrawnAfterMission 0
scalar OsgEarthNet.uav[23] utilizationCountIdleState 5
scalar OsgEarthNet.uav[23] utilizationFail 0
scalar OsgEarthNet.uav[23] simulationTime 259200
scalar OsgEarthNet.uav[24] utilizationSecMission 17116.903247866
scalar OsgEarthNet.uav[24] utilizationSecMaintenance 11927.836224782
scalar OsgEarthNet.uav[24] utilizationSecCharge 113670
scalar OsgEarthNet.uav[24] utilizationSecIdle 116485.25952735
scalar OsgEarthNet.uav[24] utilizationEnergyMission 83501.329883575
scalar OsgEarthNet.uav[24] utilizationEnergyMaintenance 56310.84828186
scalar OsgEarthNet.uav[24] utilizationEnergyCharge 140256.43408203
scalar OsgEarthNet.uav[24] utilizationEnergyOverdrawMission 0
scalar OsgEarthNet.uav[24] utilizationEnergyOverdrawMaintenance 0
scalar OsgEarthNet.uav[24] utilizationCountMissions 36
scalar OsgEarthNet.uav[24] utilizationCountManeuversMission 550
scalar OsgEarthNet.uav[24] utilizationCountManeuversMaintenance 72
scalar OsgEarthNet.uav[24] utilizationCountChargeState 36
scalar OsgEarthNet.uav[24] utilizationCountOverdrawnAfterMission 0
scalar OsgEarthNet.uav[24] utilizationCountIdleState 37
scalar OsgEarthNet.uav[24] utilizationFail 0
scalar OsgEarthNet.uav[24] simulationTime 259200
scalar OsgEarthNet.uav[25] utilizationSecMission 42432.088052692
scalar OsgEarthNet.uav[25] utilizationSecMaintenance 16081.211705249
scalar OsgEarthNet.uav[25] utilizationSecCharge 197364.69524206
scalar OsgEarthNet.uav[25] utilizationSecIdle 3322.004
scalar OsgEarthNet.uav[25] utilizationEnergyMission 204570.52892303
scalar OsgEarthNet.uav[25] utilizationEnergyMaintenance 74419.920772553
scalar OsgEarthNet.uav[25] utilizationEnergyCharge 276519.94921875
scalar OsgEarthNet.uav[25] utilizationEnergyOverdrawMission 0
scalar OsgEarthNet.uav[25] utilizationEnergyOverdrawMaintenance 0
scalar OsgEarthNet.uav[25] utilizationCountMissions 60
scalar OsgEarthNet.uav[25] utilizationCountManeuversMission 1135
scalar OsgEarthNet.uav[25] utilizationCountManeuversMaintenance 120
scalar OsgEarthNet.uav[25] utilizationCountChargeState 60
scalar OsgEarthNet.uav[25] utilizationCountOverdrawnAfterMission 0
scalar OsgEarthNet.uav[25] utilizationCountIdleState 12
scalar OsgEarthNet.uav[25] utilizationFail 0
scalar OsgEarthNet.uav[25] simulationTime 259200
scalar OsgEarthNet.uav[26] utilizationSecMission 3812.2425715706
scalar OsgEarthNet.uav[26] utilizationSecMaintenance 1787.7661893895
scalar OsgEarthNet.uav[26] utilizationSecCharge 20730
scalar OsgEarthNet.uav[26] utilizationSecIdle 232869.99023904
scalar OsgEarthNet.uav[26] utilizationEnergyMission 17840.763206482
scalar OsgEarthNet.uav[26] utilizationEnergyMaintenance 8415.9259719848
scalar OsgEarthNet.uav[26] utilizationEnergyCharge 26473.828613281
scalar OsgEarthNet.uav[26] utilizationEnergyOverdrawMission 0
scalar OsgEarthNet.uav[26] utilizationEnergyOverdrawMaintenance 0
scalar OsgEarthNet.uav[26] utilizationCountMissions 6
scalar OsgEarthNet.uav[26] utilizationCountManeuversMission 91
scalar OsgEarthNet.uav[26] utilizationCountManeuversMaintenance 12
scalar OsgEarthNet.uav[26] utilizationCountChargeState 6
scalar OsgEarthNet.uav[26] utilizationCountOverdrawnAfterMission 0
scalar OsgEarthNet.uav[26] utilizationCountIdleState 7
scalar OsgEarthNet.uav[26] utilizationFail 0
scalar OsgEarthNet.uav[26] simulationTime 259200
scalar OsgEarthNet.uav[27] utilizationSecMission 18375.787577769
scalar OsgEarthNet.uav[27] utilizationSecMaintenance 11762.209915509
scalar OsgEarthNet.uav[27] utilizationSecCharge 113110
scalar OsgEarthNet.uav[27] utilizationSecIdle 115952.00150672
scalar OsgEarthNet.uav[27] utilizationEnergyMission 90752.018104553
scalar OsgEarthNet.uav[27] utilizationEnergyMaintenance 56375.941602716
scalar OsgEarthNet.uav[27] utilizationEnergyCharge 142521.81518555
scalar OsgEarthNet.uav[27] utilizationEnergyOverdrawMission 0
scalar OsgEarthNet.uav[27] utilizationEnergyOverdrawMaintenance 0
scalar OsgEarthNet.uav[27] utilizationCountMissions 35
scalar OsgEarthNet.uav[27] utilizationCountManeuversMission 607
scalar OsgEarthNet.uav[27] utilizationCountManeuversMaintenance 70
scalar OsgEarthNet.uav[27] utilizationCountChargeState 34
scalar OsgEarthNet.uav[27] utilizationCountOverdrawnAfterMission 0
scalar OsgEarthNet.uav[27] utilizationCountIdleState 35
scalar OsgEarthNet.uav[27] utilizationFail 0
scalar OsgEarthNet.uav[27] simulationTime 259200
scalar OsgEarthNet.uav[28] utilizationSecMission 41917.030360864
scalar OsgEarthNet.uav[28] utilizationSecMaintenance 17540.965639136
scalar OsgEarthNet.uav[28] utilizationSecCharge 196910
scalar OsgEarthNet.uav[28] utilizationSecIdle 2832.003
scalar OsgEarthNet.uav[28] utilizationEnergyMission 203074.93638982
scalar OsgEarthNet.uav[28] utilizationEnergyMaintenance 80843.648097992
scalar OsgEarthNet.uav[28] utilizationEnergyCharge 280637.80419922
scalar OsgEarthNet.uav[28] utilizationEnergyOverdrawMission 0
scalar OsgEarthNet.uav[28] utilizationEnergyOverdrawMaintenance 0
scalar OsgEarthNet.uav[28] utilizationCountMissions 61
scalar OsgEarthNet.uav[28] utilizationCountManeuversMission 1252
scalar OsgEarthNet.uav[28] utilizationCountManeuversMaintenance 123
scalar OsgEarthNet.uav[28] utilizationCountChargeState 61
scalar OsgEarthNet.uav[28] utilizationCountOverdrawnAfterMission 0
scalar OsgEarthNet.uav[28] utilizationCountIdleState 10
scalar OsgEarthNet.uav[28] utilizationFail 0
scalar OsgEarthNet.uav[28] simulationTime 259200
scalar OsgEarthNet.uav[29] utilizationSecMission 3460.6251525803
scalar OsgEarthNet.uav[29] utilizationSecMaintenance 2887.5064651945
scalar OsgEarthNet.uav[29] utilizationSecCharge 24690
scalar OsgEarthNet.uav[29] utilizationSecIdle 228161.86738223
scalar OsgEarthNet.uav[29] utilizationEnergyMission 17456.463817596
scalar OsgEarthNet.uav[29] utilizationEnergyMaintenance 13859.811187744
scalar OsgEarthNet.uav[29] utilizationEnergyCharge 31692.693359375
scalar OsgEarthNet.uav[29] utilizationEnergyOverdrawMission 0
scalar OsgEarthNet.uav[29] utilizationEnergyOverdrawMaintenance 0
scalar OsgEarthNet.uav[29] utilizationCountMissions 7
scalar OsgEarthNet.uav[29] utilizationCountManeuversMission 147
scalar OsgEarthNet.uav[29] utilizationCountManeuversMaintenance 14
scalar OsgEarthNet.uav[29] utilizationCountChargeState 7
scalar OsgEarthNet.uav[29] utilizationCountOverdrawnAfterMission 0
scalar OsgEarthNet.uav[29] utilizationCountIdleState 8
scalar OsgEarthNet.uav[29] utilizationFail 0
scalar OsgEarthNet.uav[29] simulationTime 259200
scalar OsgEarthNet.uav[30] utilizationSecMission 17815.368334472
scalar OsgEarthNet.uav[30] utilizationSecMaintenance 12771.929874702
scalar OsgEarthNet.uav[30] utilizationSecCharge 114790.70079083
scalar OsgEarthNet.uav[30] utilizationSecIdle 113822
scalar OsgEarthNet.uav[30] utilizationEnergyMission 87952.901210785
scalar OsgEarthNet.uav[30] utilizationEnergyMaintenance 60766.716320038
scalar OsgEarthNet.uav[30] utilizationEnergyCharge 148955.35546875
scalar OsgEarthNet.uav[30] utilizationEnergyOverdrawMission 0
scalar OsgEarthNet.uav[30] utilizationEnergyOverdrawMaintenance 0
scalar OsgEarthNet.uav[30] utilizationCountMissions 33
scalar OsgEarthNet.uav[30] utilizationCountManeuversMission 661
scalar OsgEarthNet.uav[30] utilizationCountManeuversMaintenance 66
scalar OsgEarthNet.uav[30] utilizationCountChargeState 33
scalar OsgEarthNet.uav[30] utilizationCountOverdrawnAfterMission 0
scalar OsgEarthNet.uav[30] utilizationCountIdleState 33
scalar OsgEarthNet.uav[30] utilizationFail 0
scalar OsgEarthNet.uav[30] simulationTime 259200
scalar OsgEarthNet.uav[31] utilizationSecMission 16859.85107937
scalar OsgEarthNet.uav[31] utilizationSecMaintenance 11425.582188077
scalar OsgEarthNet.uav[31] utilizationSecCharge 110720
scalar OsgEarthNet.uav[31] utilizationSecIdle 120194.56573255
scalar OsgEarthNet.uav[31] utilizationEnergyMission 83676.696857452
scalar OsgEarthNet.uav[31] utilizationEnergyMaintenance 54574.276676178
scalar OsgEarthNet.uav[31] utilizationEnergyCharge 136705.0847168
scalar OsgEarthNet.uav[31] utilizationEnergyOverdrawMission 0
scalar OsgEarthNet.uav[31] utilizationEnergyOverdrawMaintenance 0
scalar OsgEarthNet.uav[31] utilizationCountMissions 35
scalar OsgEarthNet.uav[31] utilizationCountManeuversMission 515
scalar OsgEarthNet.uav[31] utilizationCountManeuversMaintenance 70
scalar OsgEarthNet.uav[31] utilizationCountChargeState 35
scalar OsgEarthNet.uav[31] utilizationCountOverdrawnAfterMission 0
scalar OsgEarthNet.uav[31] utilizationCountIdleState 36
scalar OsgEarthNet.uav[31] utilizationFail 0
scalar OsgEarthNet.uav[31] simulationTime 259200
scalar OsgEarthNet.uav[32] utilizationSecMission 41879.747190331
scalar OsgEarthNet.uav[32] utilizationSecMaintenance 17174.389936609
scalar OsgEarthNet.uav[32] utilizationSecCharge 196703.85787306
scalar OsgEarthNet.uav[32] utilizationSecIdle 3442.004
scalar OsgEarthNet.uav[32] utilizationEnergyMission 205011.85655594
scalar OsgEarthNet.uav[32] utilizationEnergyMaintenance 78393.761989594
scalar OsgEarthNet.uav[32] utilizationEnergyCharge 280687.26708984
scalar OsgEarthNet.uav[32] utilizationEnergyOverdrawMission 0
scalar OsgEarthNet.uav[32] utilizationEnergyOverdrawMaintenance 0
scalar OsgEarthNet.uav[32] utilizationCountMissions 61
scalar OsgEarthNet.uav[32] utilizationCountManeuversMission 1216
scalar OsgEarthNet.uav[32] utilizationCountManeuversMaintenance 122
scalar OsgEarthNet.uav[32] utilizationCountChargeState 61
scalar OsgEarthNet.uav[32] utilizationCountOverdrawnAfterMission 0
scalar OsgEarthNet.uav[32] utilizationCountIdleState 9
scalar OsgEarthNet.uav[32] utilizationFail 0
scalar OsgEarthNet.uav[32] simulationTime 259200
scalar OsgEarthNet.uav[33] utilizationSecMission 8783.7509154817
scalar OsgEarthNet.uav[33] utilizationSecMaintenance 5283.1000183945
scalar OsgEarthNet.uav[33] utilizationSecCharge 52550
scalar OsgEarthNet.uav[33] utilizationSecIdle 192583.14806612
scalar OsgEarthNet.uav[33] utilizationEnergyMission 43114.43800354
scalar OsgEarthNet.uav[33] utilizationEnergyMaintenance 25217.77053833
scalar OsgEarthNet.uav[33] utilizationEnergyCharge 67543.061523438
scalar OsgEarthNet.uav[33] utilizationEnergyOverdrawMission 0
scalar OsgEarthNet.uav[33] utilizationEnergyOverdrawMaintenance 0
scalar OsgEarthNet.uav[33] utilizationCountMissions 15
scalar OsgEarthNet.uav[33] utilizationCountManeuversMission 283
scalar OsgEarthNet.uav[33] utilizationCountManeuversMaintenance 30
scalar OsgEarthNet.uav[33] utilizationCountChargeState 15
scalar OsgEarthNet.uav[33] utilizationCountOverdrawnAfterMission 0
scalar OsgEarthNet.uav[33] utilizationCountIdleState 16
scalar OsgEarthNet.uav[33] utilizationFail 0
scalar OsgEarthNet.uav[33] simulationTime 259200
scalar OsgEarthNet.uav[34] utilizationSecMission 16804.586211998
scalar OsgEarthNet.uav[34] utilizationSecMaintenance 12808.096706172
scalar OsgEarthNet.uav[34] utilizationSecCharge 116230
scalar OsgEarthNet.uav[34] utilizationSecIdle 113357.31608183
scalar OsgEarthNet.uav[34] utilizationEnergyMission 83214.239175075
scalar OsgEarthNet.uav[34] utilizationEnergyMaintenance 61003.346229553
scalar OsgEarthNet.uav[34] utilizationEnergyCharge 142910.20849609
scalar OsgEarthNet.uav[34] utilizationEnergyOverdrawMission 0
scalar OsgEarthNet.uav[34] utilizationEnergyOverdrawMaintenance 0
scalar OsgEarthNet.uav[34] utilizationCountMissions 37
scalar OsgEarthNet.uav[34] utilizationCountManeuversMission 614
scalar OsgEarthNet.uav[34] utilizationCountManeuversMaintenance 75
scalar OsgEarthNet.uav[34] utilizationCountChargeState 37
scalar OsgEarthNet.uav[34] utilizationCountOverdrawnAfterMission 0
scalar OsgEarthNet.uav[34] utilizationCountIdleState 38
scalar OsgEarthNet.uav[34] utilizationFail 0
scalar OsgEarthNet.uav[34] simulationTime 259200
scalar OsgEarthNet.uav[35] utilizationSecMission 41902.13370495
scalar OsgEarthNet.uav[35] utilizationSecMaintenance 17390.340238163
scalar OsgEarthNet.uav[35] utilizationSecCharge 195715.51905689
scalar OsgEarthNet.uav[35] utilizationSecIdle 4192.006
scalar OsgEarthNet.uav[35] utilizationEnergyMission 201707.92966843
scalar OsgEarthNet.uav[35] utilizationEnergyMaintenance 79855.626583099
scalar OsgEarthNet.uav[35] utilizationEnergyCharge 278033.92492676
scalar OsgEarthNet.uav[35] utilizationEnergyOverdrawMission 0
scalar OsgEarthNet.uav[35] utilizationEnergyOverdrawMaintenance 0
scalar OsgEarthNet.uav[35] utilizationCountMissions 61
scalar OsgEarthNet.uav[35] utilizationCountManeuversMission 1191
scalar OsgEarthNet.uav[35] utilizationCountManeuversMaintenance 122
scalar OsgEarthNet.uav[35] utilizationCountChargeState 61
scalar OsgEarthNet.uav[35] utilizationCountOverdrawnAfterMission 0
scalar OsgEarthNet.uav[35] utilizationCountIdleState 11
scalar OsgEarthNet.uav[35] utilizationFail 0
scalar OsgEarthNet.uav[35] simulationTime 259200
scalar OsgEarthNet.uav[36] utilizationSecMission 14645.626373223
scalar OsgEarthNet.uav[36] utilizationSecMaintenance 9694.1831089657
scalar OsgEarthNet.uav[36] utilizationSecCharge 91060
scalar OsgEarthNet.uav[36] utilizationSecIdle 143800.18951781
scalar OsgEarthNet.uav[36] utilizationEnergyMission 71357.697250366
scalar OsgEarthNet.uav[36] utilizationEnergyMaintenance 45745.79384613
scalar OsgEarthNet.uav[36] utilizationEnergyCharge 117195.55810547
scalar OsgEarthNet.uav[36] utilizationEnergyOverdrawMission 0
scalar OsgEarthNet.uav[36] utilizationEnergyOverdrawMaintenance 0
scalar OsgEarthNet.uav[36] utilizationCountMissions 26
scalar OsgEarthNet.uav[36] utilizationCountManeuversMission 498
scalar OsgEarthNet.uav[36] utilizationCountManeuversMaintenance 52
scalar OsgEarthNet.uav[36] utilizationCountChargeState 26
scalar OsgEarthNet.uav[36] utilizationCountOverdrawnAfterMission 0
scalar OsgEarthNet.uav[36] utilizationCountIdleState 27
scalar OsgEarthNet.uav[36] utilizationFail 0
scalar OsgEarthNet.uav[36] simulationTime 259200
scalar OsgEarthNet.uav[37] utilizationSecMission 19512.137675893
scalar OsgEarthNet.uav[37] utilizationSecMaintenance 12454.584718977
scalar OsgEarthNet.uav[37] utilizationSecCharge 121461.26760513
scalar OsgEarthNet.uav[37] utilizationSecIdle 105772.009
scalar OsgEarthNet.uav[37] utilizationEnergyMission 93938.191940308
scalar OsgEarthNet.uav[37] utilizationEnergyMaintenance 59554.267543793
scalar OsgEarthNet.uav[37] utilizationEnergyCharge 153770.1628418
scalar OsgEarthNet.uav[37] utilizationEnergyOverdrawMission 0
scalar OsgEarthNet.uav[37] utilizationEnergyOverdrawMaintenance 0
scalar OsgEarthNet.uav[37] utilizationCountMissions 37
scalar OsgEarthNet.uav[37] utilizationCountManeuversMission 634
scalar OsgEarthNet.uav[37] utilizationCountManeuversMaintenance 74
scalar OsgEarthNet.uav[37] utilizationCountChargeState 37
scalar OsgEarthNet.uav[37] utilizationCountOverdrawnAfterMission 0
scalar OsgEarthNet.uav[37] utilizationCountIdleState 37
scalar OsgEarthNet.uav[37] utilizationFail 0
scalar OsgEarthNet.uav[37] simulationTime 259200
scalar OsgEarthNet.uav[38] utilizationSecMission 41104.05025037
scalar OsgEarthNet.uav[38] utilizationSecMaintenance 17436.317668965
scalar OsgEarthNet.uav[38] utilizationSecCharge 197400
scalar OsgEarthNet.uav[38] utilizationSecIdle 3259.6310806652
scalar OsgEarthNet.uav[38] utilizationEnergyMission 200746.85597953
scalar OsgEarthNet.uav[38] utilizationEnergyMaintenance 80725.264930725
scalar OsgEarthNet.uav[38] utilizationEnergyCharge 279866.50488281
scalar OsgEarthNet.uav[38] utilizationEnergyOverdrawMission 0
scalar OsgEarthNet.uav[38] utilizationEnergyOverdrawMaintenance 0
scalar OsgEarthNet.uav[38] utilizationCountMissions 61
scalar OsgEarthNet.uav[38] utilizationCountManeuversMission 1240
scalar OsgEarthNet.uav[38] utilizationCountManeuversMaintenance 123
scalar OsgEarthNet.uav[38] utilizationCountChargeState 61
scalar OsgEarthNet.uav[38] utilizationCountOverdrawnAfterMission 0
scalar OsgEarthNet.uav[38] utilizationCountIdleState 10
scalar OsgEarthNet.uav[38] utilizationFail 0
scalar OsgEarthNet.uav[38] simulationTime 259200
scalar OsgEarthNet.uav[39] utilizationSecMission 13714.118029311
scalar OsgEarthNet.uav[39] utilizationSecMaintenance 9526.2324493933
scalar OsgEarthNet.uav[39] utilizationSecCharge 87370
scalar OsgEarthNet.uav[39] utilizationSecIdle 148589.6485213
scalar OsgEarthNet.uav[39] utilizationEnergyMission 67049.932811737
scalar OsgEarthNet.uav[39] utilizationEnergyMaintenance 45332.953746796
scalar OsgEarthNet.uav[39] utilizationEnergyCharge 112218.60595703
scalar OsgEarthNet.uav[39] utilizationEnergyOverdrawMission 0
scalar OsgEarthNet.uav[39] utilizationEnergyOverdrawMaintenance 0
scalar OsgEarthNet.uav[39] utilizationCountMissions 25
scalar OsgEarthNet.uav[39] utilizationCountManeuversMission 508
scalar OsgEarthNet.uav[39] utilizationCountManeuversMaintenance 50
scalar OsgEarthNet.uav[39] utilizationCountChargeState 25
scalar OsgEarthNet.uav[39] utilizationCountOverdrawnAfterMission 0
scalar OsgEarthNet.uav[39] utilizationCountIdleState 26
scalar OsgEarthNet.uav[39] utilizationFail 0
scalar OsgEarthNet.uav[39] simulationTime 259200
scalar OsgEarthNet.uav[40] utilizationSecMission 14988.017908464
scalar OsgEarthNet.uav[40] utilizationSecMaintenance 8004.7714125575
scalar OsgEarthNet.uav[40] utilizationSecCharge 81580
scalar OsgEarthNet.uav[40] utilizationSecIdle 154627.20967898
scalar OsgEarthNet.uav[40] utilizationEnergyMission 71716.061328888
scalar OsgEarthNet.uav[40] utilizationEnergyMaintenance 37432.832509704
scalar OsgEarthNet.uav[40] utilizationEnergyCharge 105528.47167969
scalar OsgEarthNet.uav[40] utilizationEnergyOverdrawMission 0
scalar OsgEarthNet.uav[40] utilizationEnergyOverdrawMaintenance 0
scalar OsgEarthNet.uav[40] utilizationCountMissions 24
scalar OsgEarthNet.uav[40] utilizationCountManeuversMission 428
scalar OsgEarthNet.uav[40] utilizationCountManeuversMaintenance 48
scalar OsgEarthNet.uav[40] utilizationCountChargeState 23
scalar OsgEarthNet.uav[40] utilizationCountOverdrawnAfterMission 0
scalar OsgEarthNet.uav[40] utilizationCountIdleState 24
scalar OsgEarthNet.uav[40] utilizationFail 0
scalar OsgEarthNet.uav[40] simulationTime 259200
scalar OsgEarthNet.uav[41] utilizationSecMission 16334.657486735
scalar OsgEarthNet.uav[41] utilizationSecMaintenance 11965.536726063
scalar OsgEarthNet.uav[41] utilizationSecCharge 111630
scalar OsgEarthNet.uav[41] utilizationSecIdle 119269.8047872
scalar OsgEarthNet.uav[41] utilizationEnergyMission 81848.312850952
scalar OsgEarthNet.uav[41] utilizationEnergyMaintenance 57098.285953522
scalar OsgEarthNet.uav[41] utilizationEnergyCharge 138437.19506836
scalar OsgEarthNet.uav[41] utilizationEnergyOverdrawMission 0
scalar OsgEarthNet.uav[41] utilizationEnergyOverdrawMaintenance 0
scalar OsgEarthNet.uav[41] utilizationCountMissions 35
scalar OsgEarthNet.uav[41] utilizationCountManeuversMission 585
scalar OsgEarthNet.uav[41] utilizationCountManeuversMaintenance 70
scalar OsgEarthNet.uav[41] utilizationCountChargeState 35
scalar OsgEarthNet.uav[41] utilizationCountOverdrawnAfterMission 0
scalar OsgEarthNet.uav[41] utilizationCountIdleState 36
scalar OsgEarthNet.uav[41] utilizationFail 0
scalar OsgEarthNet.uav[41] simulationTime 259200
scalar OsgEarthNet.uav[42] utilizationSecMission 41958.959951286
scalar OsgEarthNet.uav[42] utilizationSecMaintenance 16616.738661988
scalar OsgEarthNet.uav[42] utilizationSecCharge 196250
scalar OsgEarthNet.uav[42] utilizationSecIdle 4374.3003867263
scalar OsgEarthNet.uav[42] utilizationEnergyMission 200070.42718027
scalar OsgEarthNet.uav[42] utilizationEnergyMaintenance 76353.474788666
scalar OsgEarthNet.uav[42] utilizationEnergyCharge 276379.71777344
scalar OsgEarthNet.uav[42] utilizationEnergyOverdrawMission 0
scalar OsgEarthNet.uav[42] utilizationEnergyOverdrawMaintenance 0
scalar OsgEarthNet.uav[42] utilizationCountMissions 60
scalar OsgEarthNet.uav[42] utilizationCountManeuversMission 1181
scalar OsgEarthNet.uav[42] utilizationCountManeuversMaintenance 121
scalar OsgEarthNet.uav[42] utilizationCountChargeState 60
scalar OsgEarthNet.uav[42] utilizationCountOverdrawnAfterMission 0
scalar OsgEarthNet.uav[42] utilizationCountIdleState 9
scalar OsgEarthNet.uav[42] utilizationFail 0
scalar OsgEarthNet.uav[42] simulationTime 259200
scalar OsgEarthNet.uav[43] utilizationSecMission 13264.266992983
scalar OsgEarthNet.uav[43] utilizationSecMaintenance 9408.5048839215
scalar OsgEarthNet.uav[43] utilizationSecCharge 84170
scalar OsgEarthNet.uav[43] utilizationSecIdle 152357.2271231
scalar OsgEarthNet.uav[43] utilizationEnergyMission 63715.300403595
scalar OsgEarthNet.uav[43] utilizationEnergyMaintenance 44540.981201172
scalar OsgEarthNet.uav[43] utilizationEnergyCharge 108292.25048828
scalar OsgEarthNet.uav[43] utilizationEnergyOverdrawMission 0
scalar OsgEarthNet.uav[43] utilizationEnergyOverdrawMaintenance 0
scalar OsgEarthNet.uav[43] utilizationCountMissions 24
scalar OsgEarthNet.uav[43] utilizationCountManeuversMission 498
scalar OsgEarthNet.uav[43] utilizationCountManeuversMaintenance 48
scalar OsgEarthNet.uav[43] utilizationCountChargeState 24
scalar OsgEarthNet.uav[43] utilizationCountOverdrawnAfterMission 0
scalar OsgEarthNet.uav[43] utilizationCountIdleState 25
scalar OsgEarthNet.uav[43] utilizationFail 0
scalar OsgEarthNet.uav[43] simulationTime 259200
scalar OsgEarthNet.uav[44] utilizationSecMission 19480.759949604
scalar OsgEarthNet.uav[44] utilizationSecMaintenance 14191.457758417
scalar OsgEarthNet.uav[44] utilizationSecCharge 131450.37140063
scalar OsgEarthNet.uav[44] utilizationSecIdle 94077.40989135
scalar OsgEarthNet.uav[44] utilizationEnergyMission 97812.184425354
scalar OsgEarthNet.uav[44] utilizationEnergyMaintenance 67321.781162262
scalar OsgEarthNet.uav[44] utilizationEnergyCharge 162708.13085938
scalar OsgEarthNet.uav[44] utilizationEnergyOverdrawMission 0
scalar OsgEarthNet.uav[44] utilizationEnergyOverdrawMaintenance 0
scalar OsgEarthNet.uav[44] utilizationCountMissions 42
scalar OsgEarthNet.uav[44] utilizationCountManeuversMission 675
scalar OsgEarthNet.uav[44] utilizationCountManeuversMaintenance 84
scalar OsgEarthNet.uav[44] utilizationCountChargeState 42
scalar OsgEarthNet.uav[44] utilizationCountOverdrawnAfterMission 0
scalar OsgEarthNet.uav[44] utilizationCountIdleState 42
scalar OsgEarthNet.uav[44] utilizationFail 0
scalar OsgEarthNet.uav[44] simulationTime 259200
scalar OsgEarthNet.uav[45] utilizationSecMission 41134.2817774
scalar OsgEarthNet.uav[45] utilizationSecMaintenance 17543.464576728
scalar OsgEarthNet.uav[45] utilizationSecCharge 197556.79904471
scalar OsgEarthNet.uav[45] utilizationSecIdle 2965.4536011568
scalar OsgEarthNet.uav[45] utilizationEnergyMission 199499.14871597
scalar OsgEarthNet.uav[45] utilizationEnergyMaintenance 80639.077415466
scalar OsgEarthNet.uav[45] utilizationEnergyCharge 279935.06298828
scalar OsgEarthNet.uav[45] utilizationEnergyOverdrawMission 0
scalar OsgEarthNet.uav[45] utilizationEnergyOverdrawMaintenance 0
scalar OsgEarthNet.uav[45] utilizationCountMissions 61
scalar OsgEarthNet.uav[45] utilizationCountManeuversMission 1240
scalar OsgEarthNet.uav[45] utilizationCountManeuversMaintenance 122
scalar OsgEarthNet.uav[45] utilizationCountChargeState 61
scalar OsgEarthNet.uav[45] utilizationCountOverdrawnAfterMission 0
scalar OsgEarthNet.uav[45] utilizationCountIdleState 12
scalar OsgEarthNet.uav[45] utilizationFail 0
scalar OsgEarthNet.uav[45] simulationTime 259200
scalar OsgEarthNet.uav[46] utilizationSecMission 18466.648509624
scalar OsgEarthNet.uav[46] utilizationSecMaintenance 14716.834565737
scalar OsgEarthNet.uav[46] utilizationSecCharge 127759.31724566
scalar OsgEarthNet.uav[46] utilizationSecIdle 98257.198678978
scalar OsgEarthNet.uav[46] utilizationEnergyMission 91269.31703186
scalar OsgEarthNet.uav[46] utilizationEnergyMaintenance 69817.988964081
scalar OsgEarthNet.uav[46] utilizationEnergyCharge 158091.48803711
scalar OsgEarthNet.uav[46] utilizationEnergyOverdrawMission 0
scalar OsgEarthNet.uav[46] utilizationEnergyOverdrawMaintenance 0
scalar OsgEarthNet.uav[46] utilizationCountMissions 41
scalar OsgEarthNet.uav[46] utilizationCountManeuversMission 659
scalar OsgEarthNet.uav[46] utilizationCountManeuversMaintenance 82
scalar OsgEarthNet.uav[46] utilizationCountChargeState 41
scalar OsgEarthNet.uav[46] utilizationCountOverdrawnAfterMission 0
scalar OsgEarthNet.uav[46] utilizationCountIdleState 41
scalar OsgEarthNet.uav[46] utilizationFail 0
scalar OsgEarthNet.uav[46] simulationTime 259200
scalar OsgEarthNet.uav[47] utilizationSecMission 17382.798910873
scalar OsgEarthNet.uav[47] utilizationSecMaintenance 11724.303855337
scalar OsgEarthNet.uav[47] utilizationSecCharge 113890
scalar OsgEarthNet.uav[47] utilizationSecIdle 116202.89623379
scalar OsgEarthNet.uav[47] utilizationEnergyMission 84821.53490448
scalar OsgEarthNet.uav[47] utilizationEnergyMaintenance 56116.515377045
scalar OsgEarthNet.uav[47] utilizationEnergyCharge 140729.42626953
scalar OsgEarthNet.uav[47] utilizationEnergyOverdrawMission 0
scalar OsgEarthNet.uav[47] utilizationEnergyOverdrawMaintenance 0
scalar OsgEarthNet.uav[47] utilizationCountMissions 36
scalar OsgEarthNet.uav[47] utilizationCountManeuversMission 519
scalar OsgEarthNet.uav[47] utilizationCountManeuversMaintenance 72
scalar OsgEarthNet.uav[47] utilizationCountChargeState 36
scalar OsgEarthNet.uav[47] utilizationCountOverdrawnAfterMission 0
scalar OsgEarthNet.uav[47] utilizationCountIdleState 37
scalar OsgEarthNet.uav[47] utilizationFail 0
scalar OsgEarthNet.uav[47] simulationTime 259200
scalar OsgEarthNet.uav[48] utilizationSecMission 41352.116862605
scalar OsgEarthNet.uav[48] utilizationSecMaintenance 18024.716833814
scalar OsgEarthNet.uav[48] utilizationSecCharge 197975.71503955
scalar OsgEarthNet.uav[48] utilizationSecIdle 1847.4502640309
scalar OsgEarthNet.uav[48] utilizationEnergyMission 199395.42793274
scalar OsgEarthNet.uav[48] utilizationEnergyMaintenance 82999.71497345
scalar OsgEarthNet.uav[48] utilizationEnergyCharge 282087.15478516
scalar OsgEarthNet.uav[48] utilizationEnergyOverdrawMission 0
scalar OsgEarthNet.uav[48] utilizationEnergyOverdrawMaintenance 0
scalar OsgEarthNet.uav[48] utilizationCountMissions 61
scalar OsgEarthNet.uav[48] utilizationCountManeuversMission 1232
scalar OsgEarthNet.uav[48] utilizationCountManeuversMaintenance 122
scalar OsgEarthNet.uav[48] utilizationCountChargeState 61
scalar OsgEarthNet.uav[48] utilizationCountOverdrawnAfterMission 0
scalar OsgEarthNet.uav[48] utilizationCountIdleState 11
scalar OsgEarthNet.uav[48] utilizationFail 0
scalar OsgEarthNet.uav[48] simulationTime 259200
scalar OsgEarthNet.uav[49] utilizationSecMission 11765.001220642
scalar OsgEarthNet.uav[49] utilizationSecMaintenance 7011.7676192163
scalar OsgEarthNet.uav[49] utilizationSecCharge 67849.211890413
scalar OsgEarthNet.uav[49] utilizationSecIdle 172574.01826973
scalar OsgEarthNet.uav[49] utilizationEnergyMission 57122.170505524
scalar OsgEarthNet.uav[49] utilizationEnergyMaintenance 33027.643489838
scalar OsgEarthNet.uav[49] utilizationEnergyCharge 88121.116943359
scalar OsgEarthNet.uav[49] utilizationEnergyOverdrawMission 0
scalar OsgEarthNet.uav[49] utilizationEnergyOverdrawMaintenance 0
scalar OsgEarthNet.uav[49] utilizationCountMissions 20
scalar OsgEarthNet.uav[49] utilizationCountManeuversMission 380
scalar OsgEarthNet.uav[49] utilizationCountManeuversMaintenance 40
scalar OsgEarthNet.uav[49] utilizationCountChargeState 20
scalar OsgEarthNet.uav[49] utilizationCountOverdrawnAfterMission 0
scalar OsgEarthNet.uav[49] utilizationCountIdleState 20
scalar OsgEarthNet.uav[49] utilizationFail 0
scalar OsgEarthNet.uav[49] simulationTime 259200
scalar OsgEarthNet.uav[50] utilizationSecMission 15587.501830963
scalar OsgEarthNet.uav[50] utilizationSecMaintenance 8854.1105573992
scalar OsgEarthNet.uav[50] utilizationSecCharge 90001.863733131
scalar OsgEarthNet.uav[50] utilizationSecIdle 144756.52287851
scalar OsgEarthNet.uav[50] utilizationEnergyMission 75485.783657074
scalar OsgEarthNet.uav[50] utilizationEnergyMaintenance 42081.917972565
scalar OsgEarthNet.uav[50] utilizationEnergyCharge 116223.04882812
scalar OsgEarthNet.uav[50] utilizationEnergyOverdrawMission 0
scalar OsgEarthNet.uav[50] utilizationEnergyOverdrawMaintenance 0
scalar OsgEarthNet.uav[50] utilizationCountMissions 26
scalar OsgEarthNet.uav[50] utilizationCountManeuversMission 467
scalar OsgEarthNet.uav[50] utilizationCountManeuversMaintenance 52
scalar OsgEarthNet.uav[50] utilizationCountChargeState 26
scalar OsgEarthNet.uav[50] utilizationCountOverdrawnAfterMission 0
scalar OsgEarthNet.uav[50] utilizationCountIdleState 26
scalar OsgEarthNet.uav[50] utilizationFail 0
scalar OsgEarthNet.uav[50] simulationTime 259200
scalar OsgEarthNet.uav[51] utilizationSecMission 20681.187970267
scalar OsgEarthNet.uav[51] utilizationSecMaintenance 12982.080323471
scalar OsgEarthNet.uav[51] utilizationSecCharge 125914.72970626
scalar OsgEarthNet.uav[51] utilizationSecIdle 99622.001
scalar OsgEarthNet.uav[51] utilizationEnergyMission 100827.54501724
scalar OsgEarthNet.uav[51] utilizationEnergyMaintenance 61396.712158203
scalar OsgEarthNet.uav[51] utilizationEnergyCharge 157072.0569458
scalar OsgEarthNet.uav[51] utilizationEnergyOverdrawMission 0
scalar OsgEarthNet.uav[51] utilizationEnergyOverdrawMaintenance 0
scalar OsgEarthNet.uav[51] utilizationCountMissions 40
scalar OsgEarthNet.uav[51] utilizationCountManeuversMission 603
scalar OsgEarthNet.uav[51] utilizationCountManeuversMaintenance 80
scalar OsgEarthNet.uav[51] utilizationCountChargeState 40
scalar OsgEarthNet.uav[51] utilizationCountOverdrawnAfterMission 0
scalar OsgEarthNet.uav[51] utilizationCountIdleState 40
scalar OsgEarthNet.uav[51] utilizationFail 0
scalar OsgEarthNet.uav[51] simulationTime 259200
scalar OsgEarthNet.uav[52] utilizationSecMission 41253.557185741
scalar OsgEarthNet.uav[52] utilizationSecMaintenance 18950.022320573
scalar OsgEarthNet.uav[52] utilizationSecCharge 198274.41949369
scalar OsgEarthNet.uav[52] utilizationSecIdle 722
scalar OsgEarthNet.uav[52] utilizationEnergyMission 196981.97003209
scalar OsgEarthNet.uav[52] utilizationEnergyMaintenance 87074.539478302
scalar OsgEarthNet.uav[52] utilizationEnergyCharge 282839.09155273
scalar OsgEarthNet.uav[52] utilizationEnergyOverdrawMission 0
scalar OsgEarthNet.uav[52] utilizationEnergyOverdrawMaintenance 0
scalar OsgEarthNet.uav[52] utilizationCountMissions 62
scalar OsgEarthNet.uav[52] utilizationCountManeuversMission 1172
scalar OsgEarthNet.uav[52] utilizationCountManeuversMaintenance 123
scalar OsgEarthNet.uav[52] utilizationCountChargeState 62
scalar OsgEarthNet.uav[52] utilizationCountOverdrawnAfterMission 0
scalar OsgEarthNet.uav[52] utilizationCountIdleState 9
scalar OsgEarthNet.uav[52] utilizationFail 0
scalar OsgEarthNet.uav[52] simulationTime 259200
scalar OsgEarthNet.uav[53] utilizationSecMission 16048.126983544
scalar OsgEarthNet.uav[53] utilizationSecMaintenance 8589.8337201435
scalar OsgEarthNet.uav[53] utilizationSecCharge 88154.824617335
scalar OsgEarthNet.uav[53] utilizationSecIdle 146407.21367898
scalar OsgEarthNet.uav[53] utilizationEnergyMission 78442.100536346
scalar OsgEarthNet.uav[53] utilizationEnergyMaintenance 40594.410392761
scalar OsgEarthNet.uav[53] utilizationEnergyCharge 113654.90429688
scalar OsgEarthNet.uav[53] utilizationEnergyOverdrawMission 0
scalar OsgEarthNet.uav[53] utilizationEnergyOverdrawMaintenance 0
scalar OsgEarthNet.uav[53] utilizationCountMissions 26
scalar OsgEarthNet.uav[53] utilizationCountManeuversMission 464
scalar OsgEarthNet.uav[53] utilizationCountManeuversMaintenance 52
scalar OsgEarthNet.uav[53] utilizationCountChargeState 26
scalar OsgEarthNet.uav[53] utilizationCountOverdrawnAfterMission 0
scalar OsgEarthNet.uav[53] utilizationCountIdleState 26
scalar OsgEarthNet.uav[53] utilizationFail 0
scalar OsgEarthNet.uav[53] simulationTime 259200
scalar OsgEarthNet.uav[54] utilizationSecMission 19258.514188473
scalar OsgEarthNet.uav[54] utilizationSecMaintenance 14624.64611168
scalar OsgEarthNet.uav[54] utilizationSecCharge 133310
scalar OsgEarthNet.uav[54] utilizationSecIdle 92006.838699847
scalar OsgEarthNet.uav[54] utilizationEnergyMission 95437.958202362
scalar OsgEarthNet.uav[54] utilizationEnergyMaintenance 68559.743076324
scalar OsgEarthNet.uav[54] utilizationEnergyCharge 164851.29492188
scalar OsgEarthNet.uav[54] utilizationEnergyOverdrawMission 0
scalar OsgEarthNet.uav[54] utilizationEnergyOverdrawMaintenance 0
scalar OsgEarthNet.uav[54] utilizationCountMissions 42
scalar OsgEarthNet.uav[54] utilizationCountManeuversMission 738
scalar OsgEarthNet.uav[54] utilizationCountManeuversMaintenance 84
scalar OsgEarthNet.uav[54] utilizationCountChargeState 42
scalar OsgEarthNet.uav[54] utilizationCountOverdrawnAfterMission 0
scalar OsgEarthNet.uav[54] utilizationCountIdleState 43
scalar OsgEarthNet.uav[54] utilizationFail 0
scalar OsgEarthNet.uav[54] simulationTime 259200
scalar OsgEarthNet.uav[55] utilizationSecMission 41345.943868625
scalar OsgEarthNet.uav[55] utilizationSecMaintenance 18187.371469805
scalar OsgEarthNet.uav[55] utilizationSecCharge 196245.9756042
scalar OsgEarthNet.uav[55] utilizationSecIdle 3420.7080573664
scalar OsgEarthNet.uav[55] utilizationEnergyMission 199668.04296875
scalar OsgEarthNet.uav[55] utilizationEnergyMaintenance 83662.492958069
scalar OsgEarthNet.uav[55] utilizationEnergyCharge 279962.05075073
scalar OsgEarthNet.uav[55] utilizationEnergyOverdrawMission 0
scalar OsgEarthNet.uav[55] utilizationEnergyOverdrawMaintenance 0
scalar OsgEarthNet.uav[55] utilizationCountMissions 62
scalar OsgEarthNet.uav[55] utilizationCountManeuversMission 1368
scalar OsgEarthNet.uav[55] utilizationCountManeuversMaintenance 124
scalar OsgEarthNet.uav[55] utilizationCountChargeState 62
scalar OsgEarthNet.uav[55] utilizationCountOverdrawnAfterMission 0
scalar OsgEarthNet.uav[55] utilizationCountIdleState 6
scalar OsgEarthNet.uav[55] utilizationFail 0
scalar OsgEarthNet.uav[55] simulationTime 259200
scalar OsgEarthNet.uav[56] utilizationSecMission 16665.626373223
scalar OsgEarthNet.uav[56] utilizationSecMaintenance 11309.175372426
scalar OsgEarthNet.uav[56] utilizationSecCharge 102937.99157537
scalar OsgEarthNet.uav[56] utilizationSecIdle 128287.20567898
scalar OsgEarthNet.uav[56] utilizationEnergyMission 82792.202625275
scalar OsgEarthNet.uav[56] utilizationEnergyMaintenance 54032.39466095
scalar OsgEarthNet.uav[56] utilizationEnergyCharge 133175.70507812
scalar OsgEarthNet.uav[56] utilizationEnergyOverdrawMission 0
scalar OsgEarthNet.uav[56] utilizationEnergyOverdrawMaintenance 0
scalar OsgEarthNet.uav[56] utilizationCountMissions 30
scalar OsgEarthNet.uav[56] utilizationCountManeuversMission 599
scalar OsgEarthNet.uav[56] utilizationCountManeuversMaintenance 60
scalar OsgEarthNet.uav[56] utilizationCountChargeState 30
scalar OsgEarthNet.uav[56] utilizationCountOverdrawnAfterMission 0
scalar OsgEarthNet.uav[56] utilizationCountIdleState 30
scalar OsgEarthNet.uav[56] utilizationFail 0
scalar OsgEarthNet.uav[56] simulationTime 259200
scalar OsgEarthNet.uav[57] utilizationSecMission 20144.312868167
scalar OsgEarthNet.uav[57] utilizationSecMaintenance 13323.122197312
scalar OsgEarthNet.uav[57] utilizationSecCharge 127688.80194701
scalar OsgEarthNet.uav[57] utilizationSecIdle 98043.761987508
scalar OsgEarthNet.uav[57] utilizationEnergyMission 97847.093364716
scalar OsgEarthNet.uav[57] utilizationEnergyMaintenance 63977.022094727
scalar OsgEarthNet.uav[57] utilizationEnergyCharge 162272.99804688
scalar OsgEarthNet.uav[57] utilizationEnergyOverdrawMission 0
scalar OsgEarthNet.uav[57] utilizationEnergyOverdrawMaintenance 0
scalar OsgEarthNet.uav[57] utilizationCountMissions 39
scalar OsgEarthNet.uav[57] utilizationCountManeuversMission 703
scalar OsgEarthNet.uav[57] utilizationCountManeuversMaintenance 78
scalar OsgEarthNet.uav[57] utilizationCountChargeState 39
scalar OsgEarthNet.uav[57] utilizationCountOverdrawnAfterMission 0
scalar OsgEarthNet.uav[57] utilizationCountIdleState 37
scalar OsgEarthNet.uav[57] utilizationFail 0
scalar OsgEarthNet.uav[57] simulationTime 259200
scalar OsgEarthNet.uav[58] utilizationSecMission 42518.838869449
scalar OsgEarthNet.uav[58] utilizationSecMaintenance 16606.27188479
scalar OsgEarthNet.uav[58] utilizationSecCharge 198982.88824576
scalar OsgEarthNet.uav[58] utilizationSecIdle 1092
scalar OsgEarthNet.uav[58] utilizationEnergyMission 204990.43776703
scalar OsgEarthNet.uav[58] utilizationEnergyMaintenance 77546.498744965
scalar OsgEarthNet.uav[58] utilizationEnergyCharge 281024.04760742
scalar OsgEarthNet.uav[58] utilizationEnergyOverdrawMission 0
scalar OsgEarthNet.uav[58] utilizationEnergyOverdrawMaintenance 10.158988952637
scalar OsgEarthNet.uav[58] utilizationCountMissions 61
scalar OsgEarthNet.uav[58] utilizationCountManeuversMission 1227
scalar OsgEarthNet.uav[58] utilizationCountManeuversMaintenance 122
scalar OsgEarthNet.uav[58] utilizationCountChargeState 61
scalar OsgEarthNet.uav[58] utilizationCountOverdrawnAfterMission 1
scalar OsgEarthNet.uav[58] utilizationCountIdleState 12
scalar OsgEarthNet.uav[58] utilizationFail 0
scalar OsgEarthNet.uav[58] simulationTime 259200
scalar OsgEarthNet.uav[59] utilizationSecMission 20419.635327455
scalar OsgEarthNet.uav[59] utilizationSecMaintenance 11802.439145694
scalar OsgEarthNet.uav[59] utilizationSecCharge 119670
scalar OsgEarthNet.uav[59] utilizationSecIdle 107307.92452685
scalar OsgEarthNet.uav[59] utilizationEnergyMission 99497.276824951
scalar OsgEarthNet.uav[59] utilizationEnergyMaintenance 56046.254753113
scalar OsgEarthNet.uav[59] utilizationEnergyCharge 154140.23339844
scalar OsgEarthNet.uav[59] utilizationEnergyOverdrawMission 0
scalar OsgEarthNet.uav[59] utilizationEnergyOverdrawMaintenance 0
scalar OsgEarthNet.uav[59] utilizationCountMissions 34
scalar OsgEarthNet.uav[59] utilizationCountManeuversMission 626
scalar OsgEarthNet.uav[59] utilizationCountManeuversMaintenance 68
scalar OsgEarthNet.uav[59] utilizationCountChargeState 34
scalar OsgEarthNet.uav[59] utilizationCountOverdrawnAfterMission 0
scalar OsgEarthNet.uav[59] utilizationCountIdleState 35
scalar OsgEarthNet.uav[59] utilizationFail 0
scalar OsgEarthNet.uav[59] simulationTime 259200
scalar OsgEarthNet.uav[60] utilizationSecMission 42381.082694193
scalar OsgEarthNet.uav[60] utilizationSecMaintenance 17335.916898256
scalar OsgEarthNet.uav[60] utilizationSecCharge 198880.99940755
scalar OsgEarthNet.uav[60] utilizationSecIdle 602
scalar OsgEarthNet.uav[60] utilizationEnergyMission 202602.7790947
scalar OsgEarthNet.uav[60] utilizationEnergyMaintenance 79112.586540222
scalar OsgEarthNet.uav[60] utilizationEnergyCharge 281851.01135254
scalar OsgEarthNet.uav[60] utilizationEnergyOverdrawMission 0
scalar OsgEarthNet.uav[60] utilizationEnergyOverdrawMaintenance 0
scalar OsgEarthNet.uav[60] utilizationCountMissions 62
scalar OsgEarthNet.uav[60] utilizationCountManeuversMission 1270
scalar OsgEarthNet.uav[60] utilizationCountManeuversMaintenance 123
scalar OsgEarthNet.uav[60] utilizationCountChargeState 62
scalar OsgEarthNet.uav[60] utilizationCountOverdrawnAfterMission 0
scalar OsgEarthNet.uav[60] utilizationCountIdleState 7
scalar OsgEarthNet.uav[60] utilizationFail 0
scalar OsgEarthNet.uav[60] simulationTime 259200
scalar OsgEarthNet.uav[61] utilizationSecMission 21689.396644253
scalar OsgEarthNet.uav[61] utilizationSecMaintenance 14605.706820796
scalar OsgEarthNet.uav[61] utilizationSecCharge 138564.87526081
scalar OsgEarthNet.uav[61] utilizationSecIdle 84340.020274145
scalar OsgEarthNet.uav[61] utilizationEnergyMission 107820.19364166
scalar OsgEarthNet.uav[61] utilizationEnergyMaintenance 69541.449813843
scalar OsgEarthNet.uav[61] utilizationEnergyCharge 174316.171875
scalar OsgEarthNet.uav[61] utilizationEnergyOverdrawMission 0
scalar OsgEarthNet.uav[61] utilizationEnergyOverdrawMaintenance 0
scalar OsgEarthNet.uav[61] utilizationCountMissions 43
scalar OsgEarthNet.uav[61] utilizationCountManeuversMission 742
scalar OsgEarthNet.uav[61] utilizationCountManeuversMaintenance 86
scalar OsgEarthNet.uav[61] utilizationCountChargeState 43
scalar OsgEarthNet.uav[61] utilizationCountOverdrawnAfterMission 0
scalar OsgEarthNet.uav[61] utilizationCountIdleState 43
scalar OsgEarthNet.uav[61] utilizationFail 0
scalar OsgEarthNet.uav[61] simulationTime 259200
scalar OsgEarthNet.uav[62] utilizationSecMission 40563.1059142
scalar OsgEarthNet.uav[62] utilizationSecMaintenance 19436.21166853
scalar OsgEarthNet.uav[62] utilizationSecCharge 198181.46180335
scalar OsgEarthNet.uav[62] utilizationSecIdle 1019.2196139157
scalar OsgEarthNet.uav[62] utilizationEnergyMission 197173.67857361
scalar OsgEarthNet.uav[62] utilizationEnergyMaintenance 89181.927509308
scalar OsgEarthNet.uav[62] utilizationEnergyCharge 283861.09594727
scalar OsgEarthNet.uav[62] utilizationEnergyOverdrawMission 0
scalar OsgEarthNet.uav[62] utilizationEnergyOverdrawMaintenance 0
scalar OsgEarthNet.uav[62] utilizationCountMissions 63
scalar OsgEarthNet.uav[62] utilizationCountManeuversMission 1342
scalar OsgEarthNet.uav[62] utilizationCountManeuversMaintenance 126
scalar OsgEarthNet.uav[62] utilizationCountChargeState 63
scalar OsgEarthNet.uav[62] utilizationCountOverdrawnAfterMission 0
scalar OsgEarthNet.uav[62] utilizationCountIdleState 7
scalar OsgEarthNet.uav[62] utilizationFail 0
scalar OsgEarthNet.uav[62] simulationTime 259200
scalar OsgEarthNet.uav[63] utilizationSecMission 16726.985753462
scalar OsgEarthNet.uav[63] utilizationSecMaintenance 10349.957059433
scalar OsgEarthNet.uav[63] utilizationSecCharge 101220.29022177
scalar OsgEarthNet.uav[63] utilizationSecIdle 130902.76596534
scalar OsgEarthNet.uav[63] utilizationEnergyMission 81684.837604523
scalar OsgEarthNet.uav[63] utilizationEnergyMaintenance 49409.389015198
scalar OsgEarthNet.uav[63] utilizationEnergyCharge 130878.42480469
scalar OsgEarthNet.uav[63] utilizationEnergyOverdrawMission 0
scalar OsgEarthNet.uav[63] utilizationEnergyOverdrawMaintenance 0
scalar OsgEarthNet.uav[63] utilizationCountMissions 29
scalar OsgEarthNet.uav[63] utilizationCountManeuversMission 533
scalar OsgEarthNet.uav[63] utilizationCountManeuversMaintenance 58
scalar OsgEarthNet.uav[63] utilizationCountChargeState 29
scalar OsgEarthNet.uav[63] utilizationCountOverdrawnAfterMission 0
scalar OsgEarthNet.uav[63] utilizationCountIdleState 29
scalar OsgEarthNet.uav[63] utilizationFail 0
scalar OsgEarthNet.uav[63] simulationTime 259200
scalar OsgEarthNet.uav[64] utilizationSecMission 22973.253345991
scalar OsgEarthNet.uav[64] utilizationSecMaintenance 16068.644815257
scalar OsgEarthNet.uav[64] utilizationSecCharge 148383.48894924
scalar OsgEarthNet.uav[64] utilizationSecIdle 71774.611889516
scalar OsgEarthNet.uav[64] utilizationEnergyMission 113222.36568451
scalar OsgEarthNet.uav[64] utilizationEnergyMaintenance 76324.257873535
scalar OsgEarthNet.uav[64] utilizationEnergyCharge 184863.94384766
scalar OsgEarthNet.uav[64] utilizationEnergyOverdrawMission 0
scalar OsgEarthNet.uav[64] utilizationEnergyOverdrawMaintenance 0
scalar OsgEarthNet.uav[64] utilizationCountMissions 47
scalar OsgEarthNet.uav[64] utilizationCountManeuversMission 813
scalar OsgEarthNet.uav[64] utilizationCountManeuversMaintenance 94
scalar OsgEarthNet.uav[64] utilizationCountChargeState 47
scalar OsgEarthNet.uav[64] utilizationCountOverdrawnAfterMission 0
scalar OsgEarthNet.uav[64] utilizationCountIdleState 47
scalar OsgEarthNet.uav[64] utilizationFail 0
scalar OsgEarthNet.uav[64] simulationTime 259200
scalar OsgEarthNet.uav[65] utilizationSecMission 41811.801869639
scalar OsgEarthNet.uav[65] utilizationSecMaintenance 17046.483586573
scalar OsgEarthNet.uav[65] utilizationSecCharge 198269.01087607
scalar OsgEarthNet.uav[65] utilizationSecIdle 2072.7026677176
[...]
scalar OsgEarthNet.uav[81] utilizationCountMissions 42
scalar OsgEarthNet.uav[81] utilizationCountManeuversMission 728
scalar OsgEarthNet.uav[81] utilizationCountManeuversMaintenance 84
scalar OsgEarthNet.uav[81] utilizationCountChargeState 42
scalar OsgEarthNet.uav[81] utilizationCountOverdrawnAfterMission 0
scalar OsgEarthNet.uav[81] utilizationCountIdleState 43
scalar OsgEarthNet.uav[81] utilizationFail 0
scalar OsgEarthNet.uav[81] simulationTime 259200
scalar OsgEarthNet.uav[82] utilizationSecMission 41373.464006097
scalar OsgEarthNet.uav[82] utilizationSecMaintenance 17264.557128925
scalar OsgEarthNet.uav[82] utilizationSecCharge 196299.97086498
scalar OsgEarthNet.uav[82] utilizationSecIdle 4262.007
scalar OsgEarthNet.uav[82] utilizationEnergyMission 199674.63175964
scalar OsgEarthNet.uav[82] utilizationEnergyMaintenance 79332.783214569
scalar OsgEarthNet.uav[82] utilizationEnergyCharge 278384.52172852
scalar OsgEarthNet.uav[82] utilizationEnergyOverdrawMission 0
scalar OsgEarthNet.uav[82] utilizationEnergyOverdrawMaintenance 0
scalar OsgEarthNet.uav[82] utilizationCountMissions 61
scalar OsgEarthNet.uav[82] utilizationCountManeuversMission 1269
scalar OsgEarthNet.uav[82] utilizationCountManeuversMaintenance 122
scalar OsgEarthNet.uav[82] utilizationCountChargeState 61
scalar OsgEarthNet.uav[82] utilizationCountOverdrawnAfterMission 0
scalar OsgEarthNet.uav[82] utilizationCountIdleState 11
scalar OsgEarthNet.uav[82] utilizationFail 0
scalar OsgEarthNet.uav[82] simulationTime 259200
scalar OsgEarthNet.uav[83] utilizationSecMission 21171.182100564
scalar OsgEarthNet.uav[83] utilizationSecMaintenance 12924.69077163
scalar OsgEarthNet.uav[83] utilizationSecCharge 128010
scalar OsgEarthNet.uav[83] utilizationSecIdle 97094.126127806
scalar OsgEarthNet.uav[83] utilizationEnergyMission 103245.30228043
scalar OsgEarthNet.uav[83] utilizationEnergyMaintenance 61183.687740326
scalar OsgEarthNet.uav[83] utilizationEnergyCharge 163696.33056641
scalar OsgEarthNet.uav[83] utilizationEnergyOverdrawMission 0
scalar OsgEarthNet.uav[83] utilizationEnergyOverdrawMaintenance 0
scalar OsgEarthNet.uav[83] utilizationCountMissions 37
scalar OsgEarthNet.uav[83] utilizationCountManeuversMission 668
scalar OsgEarthNet.uav[83] utilizationCountManeuversMaintenance 74
scalar OsgEarthNet.uav[83] utilizationCountChargeState 37
scalar OsgEarthNet.uav[83] utilizationCountOverdrawnAfterMission 0
scalar OsgEarthNet.uav[83] utilizationCountIdleState 38
scalar OsgEarthNet.uav[83] utilizationFail 0
scalar OsgEarthNet.uav[83] simulationTime 259200
scalar OsgEarthNet.uav[84] utilizationSecMission 21303.500981245
scalar OsgEarthNet.uav[84] utilizationSecMaintenance 14809.140987753
scalar OsgEarthNet.uav[84] utilizationSecCharge 140440
scalar OsgEarthNet.uav[84] utilizationSecIdle 82647.357031001
scalar OsgEarthNet.uav[84] utilizationEnergyMission 106831.66765213
scalar OsgEarthNet.uav[84] utilizationEnergyMaintenance 70773.078586578
scalar OsgEarthNet.uav[84] utilizationEnergyCharge 175749.67260742
scalar OsgEarthNet.uav[84] utilizationEnergyOverdrawMission 0
scalar OsgEarthNet.uav[84] utilizationEnergyOverdrawMaintenance 0
scalar OsgEarthNet.uav[84] utilizationCountMissions 43
scalar OsgEarthNet.uav[84] utilizationCountManeuversMission 767
scalar OsgEarthNet.uav[84] utilizationCountManeuversMaintenance 86
scalar OsgEarthNet.uav[84] utilizationCountChargeState 43
scalar OsgEarthNet.uav[84] utilizationCountOverdrawnAfterMission 0
scalar OsgEarthNet.uav[84] utilizationCountIdleState 44
scalar OsgEarthNet.uav[84] utilizationFail 0
scalar OsgEarthNet.uav[84] simulationTime 259200
scalar OsgEarthNet.uav[85] utilizationSecMission 40962.213149005
scalar OsgEarthNet.uav[85] utilizationSecMaintenance 18066.286152449
scalar OsgEarthNet.uav[85] utilizationSecCharge 197979.49769855
scalar OsgEarthNet.uav[85] utilizationSecIdle 2192.002
scalar OsgEarthNet.uav[85] utilizationEnergyMission 199404.25027084
scalar OsgEarthNet.uav[85] utilizationEnergyMaintenance 83903.044239044
scalar OsgEarthNet.uav[85] utilizationEnergyCharge 282569.41992188
scalar OsgEarthNet.uav[85] utilizationEnergyOverdrawMission 0
scalar OsgEarthNet.uav[85] utilizationEnergyOverdrawMaintenance 0
scalar OsgEarthNet.uav[85] utilizationCountMissions 62
scalar OsgEarthNet.uav[85] utilizationCountManeuversMission 1287
scalar OsgEarthNet.uav[85] utilizationCountManeuversMaintenance 124
scalar OsgEarthNet.uav[85] utilizationCountChargeState 62
scalar OsgEarthNet.uav[85] utilizationCountOverdrawnAfterMission 0
scalar OsgEarthNet.uav[85] utilizationCountIdleState 13
scalar OsgEarthNet.uav[85] utilizationFail 0
scalar OsgEarthNet.uav[85] simulationTime 259200
scalar OsgEarthNet.uav[86] utilizationSecMission 21268.752136124
scalar OsgEarthNet.uav[86] utilizationSecMaintenance 13190.00119735
scalar OsgEarthNet.uav[86] utilizationSecCharge 129440
scalar OsgEarthNet.uav[86] utilizationSecIdle 95301.245666526
scalar OsgEarthNet.uav[86] utilizationEnergyMission 102217.95168686
scalar OsgEarthNet.uav[86] utilizationEnergyMaintenance 63071.570392608
scalar OsgEarthNet.uav[86] utilizationEnergyCharge 166381.68017578
scalar OsgEarthNet.uav[86] utilizationEnergyOverdrawMission 0
scalar OsgEarthNet.uav[86] utilizationEnergyOverdrawMaintenance 0
scalar OsgEarthNet.uav[86] utilizationCountMissions 37
scalar OsgEarthNet.uav[86] utilizationCountManeuversMission 699
scalar OsgEarthNet.uav[86] utilizationCountManeuversMaintenance 74
scalar OsgEarthNet.uav[86] utilizationCountChargeState 37
scalar OsgEarthNet.uav[86] utilizationCountOverdrawnAfterMission 0
scalar OsgEarthNet.uav[86] utilizationCountIdleState 38
scalar OsgEarthNet.uav[86] utilizationFail 0
scalar OsgEarthNet.uav[86] simulationTime 259200
scalar OsgEarthNet.uav[87] utilizationSecMission 21902.419874114
scalar OsgEarthNet.uav[87] utilizationSecMaintenance 14371.518661682
scalar OsgEarthNet.uav[87] utilizationSecCharge 139420
scalar OsgEarthNet.uav[87] utilizationSecIdle 83506.060464204
scalar OsgEarthNet.uav[87] utilizationEnergyMission 106730.00104523
scalar OsgEarthNet.uav[87] utilizationEnergyMaintenance 67491.587112427
scalar OsgEarthNet.uav[87] utilizationEnergyCharge 173779.11914062
scalar OsgEarthNet.uav[87] utilizationEnergyOverdrawMission 0
scalar OsgEarthNet.uav[87] utilizationEnergyOverdrawMaintenance 0
scalar OsgEarthNet.uav[87] utilizationCountMissions 43
scalar OsgEarthNet.uav[87] utilizationCountManeuversMission 661
scalar OsgEarthNet.uav[87] utilizationCountManeuversMaintenance 86
scalar OsgEarthNet.uav[87] utilizationCountChargeState 43
scalar OsgEarthNet.uav[87] utilizationCountOverdrawnAfterMission 0
scalar OsgEarthNet.uav[87] utilizationCountIdleState 44
scalar OsgEarthNet.uav[87] utilizationFail 0
scalar OsgEarthNet.uav[87] simulationTime 259200
scalar OsgEarthNet.uav[88] utilizationSecMission 42175.709240152
scalar OsgEarthNet.uav[88] utilizationSecMaintenance 17048.967344671
scalar OsgEarthNet.uav[88] utilizationSecCharge 196095.48560114
scalar OsgEarthNet.uav[88] utilizationSecIdle 3879.83681404
scalar OsgEarthNet.uav[88] utilizationEnergyMission 201279.78408813
scalar OsgEarthNet.uav[88] utilizationEnergyMaintenance 79864.897975922
scalar OsgEarthNet.uav[88] utilizationEnergyCharge 278502.38934326
scalar OsgEarthNet.uav[88] utilizationEnergyOverdrawMission 0
scalar OsgEarthNet.uav[88] utilizationEnergyOverdrawMaintenance 0
scalar OsgEarthNet.uav[88] utilizationCountMissions 61
scalar OsgEarthNet.uav[88] utilizationCountManeuversMission 1154
scalar OsgEarthNet.uav[88] utilizationCountManeuversMaintenance 122
scalar OsgEarthNet.uav[88] utilizationCountChargeState 61
scalar OsgEarthNet.uav[88] utilizationCountOverdrawnAfterMission 0
scalar OsgEarthNet.uav[88] utilizationCountIdleState 11
scalar OsgEarthNet.uav[88] utilizationFail 0
scalar OsgEarthNet.uav[88] simulationTime 259200
scalar OsgEarthNet.uav[89] utilizationSecMission 23122.939986083
scalar OsgEarthNet.uav[89] utilizationSecMaintenance 14179.859334939
scalar OsgEarthNet.uav[89] utilizationSecCharge 137770
scalar OsgEarthNet.uav[89] utilizationSecIdle 84127.199678978
scalar OsgEarthNet.uav[89] utilizationEnergyMission 110136.42574656
scalar OsgEarthNet.uav[89] utilizationEnergyMaintenance 67880.420032501
scalar OsgEarthNet.uav[89] utilizationEnergyCharge 177604.68701172
scalar OsgEarthNet.uav[89] utilizationEnergyOverdrawMission 0
scalar OsgEarthNet.uav[89] utilizationEnergyOverdrawMaintenance 0
scalar OsgEarthNet.uav[89] utilizationCountMissions 39
scalar OsgEarthNet.uav[89] utilizationCountManeuversMission 731
scalar OsgEarthNet.uav[89] utilizationCountManeuversMaintenance 79
scalar OsgEarthNet.uav[89] utilizationCountChargeState 39
scalar OsgEarthNet.uav[89] utilizationCountOverdrawnAfterMission 0
scalar OsgEarthNet.uav[89] utilizationCountIdleState 40
scalar OsgEarthNet.uav[89] utilizationFail 0
scalar OsgEarthNet.uav[89] simulationTime 259200
scalar OsgEarthNet.uav[90] utilizationSecMission 19868.126983544
scalar OsgEarthNet.uav[90] utilizationSecMaintenance 12801.485226271
scalar OsgEarthNet.uav[90] utilizationSecCharge 122051.98545509
scalar OsgEarthNet.uav[90] utilizationSecIdle 104478.40133509
scalar OsgEarthNet.uav[90] utilizationEnergyMission 97931.272708893
scalar OsgEarthNet.uav[90] utilizationEnergyMaintenance 60878.008712768
scalar OsgEarthNet.uav[90] utilizationEnergyCharge 158708.34912109
scalar OsgEarthNet.uav[90] utilizationEnergyOverdrawMission 0
scalar OsgEarthNet.uav[90] utilizationEnergyOverdrawMaintenance 0
scalar OsgEarthNet.uav[90] utilizationCountMissions 35
scalar OsgEarthNet.uav[90] utilizationCountManeuversMission 655
scalar OsgEarthNet.uav[90] utilizationCountManeuversMaintenance 70
scalar OsgEarthNet.uav[90] utilizationCountChargeState 35
scalar OsgEarthNet.uav[90] utilizationCountOverdrawnAfterMission 0
scalar OsgEarthNet.uav[90] utilizationCountIdleState 35
scalar OsgEarthNet.uav[90] utilizationFail 0
scalar OsgEarthNet.uav[90] simulationTime 259200
scalar OsgEarthNet.uav[91] utilizationSecMission 22192.551275619
scalar OsgEarthNet.uav[91] utilizationSecMaintenance 15336.636592248
scalar OsgEarthNet.uav[91] utilizationSecCharge 145990
scalar OsgEarthNet.uav[91] utilizationSecIdle 75680.811132134
scalar OsgEarthNet.uav[91] utilizationEnergyMission 108740.43530655
scalar OsgEarthNet.uav[91] utilizationEnergyMaintenance 72447.674446106
scalar OsgEarthNet.uav[91] utilizationEnergyCharge 180527.30615234
scalar OsgEarthNet.uav[91] utilizationEnergyOverdrawMission 0
scalar OsgEarthNet.uav[91] utilizationEnergyOverdrawMaintenance 0
scalar OsgEarthNet.uav[91] utilizationCountMissions 46
scalar OsgEarthNet.uav[91] utilizationCountManeuversMission 722
scalar OsgEarthNet.uav[91] utilizationCountManeuversMaintenance 92
scalar OsgEarthNet.uav[91] utilizationCountChargeState 46
scalar OsgEarthNet.uav[91] utilizationCountOverdrawnAfterMission 0
scalar OsgEarthNet.uav[91] utilizationCountIdleState 47
scalar OsgEarthNet.uav[91] utilizationFail 0
scalar OsgEarthNet.uav[91] simulationTime 259200
scalar OsgEarthNet.uav[92] utilizationSecMission 39644.919465782
scalar OsgEarthNet.uav[92] utilizationSecMaintenance 18095.654186928
scalar OsgEarthNet.uav[92] utilizationSecCharge 194010
scalar OsgEarthNet.uav[92] utilizationSecIdle 7449.4253472904
scalar OsgEarthNet.uav[92] utilizationEnergyMission 189693.73305988
scalar OsgEarthNet.uav[92] utilizationEnergyMaintenance 83644.353664398
scalar OsgEarthNet.uav[92] utilizationEnergyCharge 274161.50805664
scalar OsgEarthNet.uav[92] utilizationEnergyOverdrawMission 0
scalar OsgEarthNet.uav[92] utilizationEnergyOverdrawMaintenance 0
scalar OsgEarthNet.uav[92] utilizationCountMissions 60
scalar OsgEarthNet.uav[92] utilizationCountManeuversMission 1170
scalar OsgEarthNet.uav[92] utilizationCountManeuversMaintenance 121
scalar OsgEarthNet.uav[92] utilizationCountChargeState 60
scalar OsgEarthNet.uav[92] utilizationCountOverdrawnAfterMission 0
scalar OsgEarthNet.uav[92] utilizationCountIdleState 11
scalar OsgEarthNet.uav[92] utilizationFail 0
scalar OsgEarthNet.uav[92] simulationTime 259200
scalar OsgEarthNet.uav[93] utilizationSecMission 24419.739778336
scalar OsgEarthNet.uav[93] utilizationSecMaintenance 12820.51162067
scalar OsgEarthNet.uav[93] utilizationSecCharge 137000
scalar OsgEarthNet.uav[93] utilizationSecIdle 84959.747600994
scalar OsgEarthNet.uav[93] utilizationEnergyMission 115804.19874191
scalar OsgEarthNet.uav[93] utilizationEnergyMaintenance 60572.343158722
scalar OsgEarthNet.uav[93] utilizationEnergyCharge 176465.93554688
scalar OsgEarthNet.uav[93] utilizationEnergyOverdrawMission 0
scalar OsgEarthNet.uav[93] utilizationEnergyOverdrawMaintenance 0
scalar OsgEarthNet.uav[93] utilizationCountMissions 39
scalar OsgEarthNet.uav[93] utilizationCountManeuversMission 693
scalar OsgEarthNet.uav[93] utilizationCountManeuversMaintenance 77
scalar OsgEarthNet.uav[93] utilizationCountChargeState 39
scalar OsgEarthNet.uav[93] utilizationCountOverdrawnAfterMission 0
scalar OsgEarthNet.uav[93] utilizationCountIdleState 40
scalar OsgEarthNet.uav[93] utilizationFail 0
scalar OsgEarthNet.uav[93] simulationTime 259200
scalar OsgEarthNet.uav[94] utilizationSecMission 23924.135801771
scalar OsgEarthNet.uav[94] utilizationSecMaintenance 15258.241250643
scalar OsgEarthNet.uav[94] utilizationSecCharge 148135.61194759
scalar OsgEarthNet.uav[94] utilizationSecIdle 71882.01
scalar OsgEarthNet.uav[94] utilizationEnergyMission 116827.91969681
scalar OsgEarthNet.uav[94] utilizationEnergyMaintenance 72781.002033234
scalar OsgEarthNet.uav[94] utilizationEnergyCharge 186242.96020508
scalar OsgEarthNet.uav[94] utilizationEnergyOverdrawMission 0
scalar OsgEarthNet.uav[94] utilizationEnergyOverdrawMaintenance 0
scalar OsgEarthNet.uav[94] utilizationCountMissions 46
scalar OsgEarthNet.uav[94] utilizationCountManeuversMission 743
scalar OsgEarthNet.uav[94] utilizationCountManeuversMaintenance 92
scalar OsgEarthNet.uav[94] utilizationCountChargeState 46
scalar OsgEarthNet.uav[94] utilizationCountOverdrawnAfterMission 0
scalar OsgEarthNet.uav[94] utilizationCountIdleState 46
scalar OsgEarthNet.uav[94] utilizationFail 0
scalar OsgEarthNet.uav[94] simulationTime 259200
scalar OsgEarthNet.uav[95] utilizationSecMission 42404.574226104
scalar OsgEarthNet.uav[95] utilizationSecMaintenance 17638.850588604
scalar OsgEarthNet.uav[95] utilizationSecCharge 197514.57218529
scalar OsgEarthNet.uav[95] utilizationSecIdle 1642.002
scalar OsgEarthNet.uav[95] utilizationEnergyMission 206961.43793869
scalar OsgEarthNet.uav[95] utilizationEnergyMaintenance 81837.169075012
scalar OsgEarthNet.uav[95] utilizationEnergyCharge 281018.38708496
scalar OsgEarthNet.uav[95] utilizationEnergyOverdrawMission 0
scalar OsgEarthNet.uav[95] utilizationEnergyOverdrawMaintenance 0
scalar OsgEarthNet.uav[95] utilizationCountMissions 62
scalar OsgEarthNet.uav[95] utilizationCountManeuversMission 1268
scalar OsgEarthNet.uav[95] utilizationCountManeuversMaintenance 124
scalar OsgEarthNet.uav[95] utilizationCountChargeState 62
scalar OsgEarthNet.uav[95] utilizationCountOverdrawnAfterMission 0
scalar OsgEarthNet.uav[95] utilizationCountIdleState 8
scalar OsgEarthNet.uav[95] utilizationFail 0
scalar OsgEarthNet.uav[95] simulationTime 259200
scalar OsgEarthNet.uav[96] utilizationSecMission 20298.494097373
scalar OsgEarthNet.uav[96] utilizationSecMaintenance 12482.933066804
scalar OsgEarthNet.uav[96] utilizationSecCharge 119371.35615684
scalar OsgEarthNet.uav[96] utilizationSecIdle 107047.21567898
scalar OsgEarthNet.uav[96] utilizationEnergyMission 98651.37146759
scalar OsgEarthNet.uav[96] utilizationEnergyMaintenance 59084.349369049
scalar OsgEarthNet.uav[96] utilizationEnergyCharge 153795.81646729
scalar OsgEarthNet.uav[96] utilizationEnergyOverdrawMission 0
scalar OsgEarthNet.uav[96] utilizationEnergyOverdrawMaintenance 0
scalar OsgEarthNet.uav[96] utilizationCountMissions 35
scalar OsgEarthNet.uav[96] utilizationCountManeuversMission 655
scalar OsgEarthNet.uav[96] utilizationCountManeuversMaintenance 70
scalar OsgEarthNet.uav[96] utilizationCountChargeState 35
scalar OsgEarthNet.uav[96] utilizationCountOverdrawnAfterMission 0
scalar OsgEarthNet.uav[96] utilizationCountIdleState 35
scalar OsgEarthNet.uav[96] utilizationFail 0
scalar OsgEarthNet.uav[96] simulationTime 259200
scalar OsgEarthNet.uav[97] utilizationSecMission 23056.185116471
scalar OsgEarthNet.uav[97] utilizationSecMaintenance 15875.153734845
scalar OsgEarthNet.uav[97] utilizationSecCharge 151360
scalar OsgEarthNet.uav[97] utilizationSecIdle 68908.660148684
scalar OsgEarthNet.uav[97] utilizationEnergyMission 112872.25761032
scalar OsgEarthNet.uav[97] utilizationEnergyMaintenance 75176.683368683
scalar OsgEarthNet.uav[97] utilizationEnergyCharge 188523.86328125
scalar OsgEarthNet.uav[97] utilizationEnergyOverdrawMission 0
scalar OsgEarthNet.uav[97] utilizationEnergyOverdrawMaintenance 0
scalar OsgEarthNet.uav[97] utilizationCountMissions 47
scalar OsgEarthNet.uav[97] utilizationCountManeuversMission 792
scalar OsgEarthNet.uav[97] utilizationCountManeuversMaintenance 93
scalar OsgEarthNet.uav[97] utilizationCountChargeState 47
scalar OsgEarthNet.uav[97] utilizationCountOverdrawnAfterMission 0
scalar OsgEarthNet.uav[97] utilizationCountIdleState 48
scalar OsgEarthNet.uav[97] utilizationFail 0
scalar OsgEarthNet.uav[97] simulationTime 259200
scalar OsgEarthNet.uav[98] utilizationSecMission 40975.122209296
scalar OsgEarthNet.uav[98] utilizationSecMaintenance 18126.515827402
scalar OsgEarthNet.uav[98] utilizationSecCharge 197546.3579633
scalar OsgEarthNet.uav[98] utilizationSecIdle 2552.003
scalar OsgEarthNet.uav[98] utilizationEnergyMission 198181.89719772
scalar OsgEarthNet.uav[98] utilizationEnergyMaintenance 83440.061759949
scalar OsgEarthNet.uav[98] utilizationEnergyCharge 280547.54785156
scalar OsgEarthNet.uav[98] utilizationEnergyOverdrawMission 0
scalar OsgEarthNet.uav[98] utilizationEnergyOverdrawMaintenance 0
scalar OsgEarthNet.uav[98] utilizationCountMissions 62
scalar OsgEarthNet.uav[98] utilizationCountManeuversMission 1380
scalar OsgEarthNet.uav[98] utilizationCountManeuversMaintenance 124
scalar OsgEarthNet.uav[98] utilizationCountChargeState 62
scalar OsgEarthNet.uav[98] utilizationCountOverdrawnAfterMission 0
scalar OsgEarthNet.uav[98] utilizationCountIdleState 9
scalar OsgEarthNet.uav[98] utilizationFail 0
scalar OsgEarthNet.uav[98] simulationTime 259200
scalar OsgEarthNet.uav[99] utilizationSecMission 21406.985753462
scalar OsgEarthNet.uav[99] utilizationSecMaintenance 14941.610329356
scalar OsgEarthNet.uav[99] utilizationSecCharge 136670
scalar OsgEarthNet.uav[99] utilizationSecIdle 86181.402917181
scalar OsgEarthNet.uav[99] utilizationEnergyMission 104722.63383865
scalar OsgEarthNet.uav[99] utilizationEnergyMaintenance 70317.763248443
scalar OsgEarthNet.uav[99] utilizationEnergyCharge 176333.10058594
scalar OsgEarthNet.uav[99] utilizationEnergyOverdrawMission 0
scalar OsgEarthNet.uav[99] utilizationEnergyOverdrawMaintenance 0
scalar OsgEarthNet.uav[99] utilizationCountMissions 39
scalar OsgEarthNet.uav[99] utilizationCountManeuversMission 767
scalar OsgEarthNet.uav[99] utilizationCountManeuversMaintenance 78
scalar OsgEarthNet.uav[99] utilizationCountChargeState 39
scalar OsgEarthNet.uav[99] utilizationCountOverdrawnAfterMission 0
scalar OsgEarthNet.uav[99] utilizationCountIdleState 40
scalar OsgEarthNet.uav[99] utilizationFail 0
scalar OsgEarthNet.uav[99] simulationTime 259200
scalar OsgEarthNet.cs[0] usedPower 4004583.8588926
scalar OsgEarthNet.cs[0] chargedPower 4004583.8588926
scalar OsgEarthNet.cs[0] chargedMobileNodes 879
scalar OsgEarthNet.cs[0] reservations 891
scalar OsgEarthNet.cs[1] usedPower 4147403.7045614
scalar OsgEarthNet.cs[1] chargedPower 4147403.7045614
scalar OsgEarthNet.cs[1] chargedMobileNodes 1033
scalar OsgEarthNet.cs[1] reservations 1047
scalar OsgEarthNet.cs[2] usedPower 8692806.9275607
scalar OsgEarthNet.cs[2] chargedPower 8692806.9275607
scalar OsgEarthNet.cs[2] chargedMobileNodes 257
scalar OsgEarthNet.cs[2] reservations 1901

