version 2
run Szenario_Hotel_Gabelbach-102-20180712-01:36:16-16084
attr configname Szenario_Hotel_Gabelbach
attr datetime 20180712-01:36:16
attr experiment Szenario_Hotel_Gabelbach
attr inifile omnetpp.ini
attr iterationvars "$replM=2, $biWeight=0.35, $replSearchM=1, $numUAVs=55"
attr iterationvarsf replM=2,biWeight=0.35,replSearchM=1,numUAVs=55-
attr measurement "$replM=2, $biWeight=0.35, $replSearchM=1, $numUAVs=55"
attr network OsgEarthNet
attr processid 16084
attr repetition 6
attr replication #6
attr resultdir results
attr runnumber 102
attr seedset 102
itervar biWeight 0.35
itervar numUAVs 55
itervar replM 2
itervar replSearchM 1
param *.osgEarthScene.scene "\"Szenario_Hotel_Gabelbach.earth\""
param *.playgroundLatitude 50.6830269
param *.playgroundLongitude 10.8538055
param *.playgroundWidth 3500m
param *.playgroundHeight 3500m
param *.cs[0].posX 3537m
param *.cs[0].posY 965m
param *.cs[0].posZ 538m
param *.cs[1].posX 312m
param *.cs[1].posY 1262m
param *.cs[1].posZ 539m
param *.cs[2].posX 2185m
param *.cs[2].posY 3026m
param *.cs[2].posZ 777m
param *.cs[3].posX 10m
param *.cs[3].posY 2200m
param *.cs[3].posZ 560m
param *.cs[4].posX 750m
param *.cs[4].posY 200m
param *.cs[4].posZ 540m
param *.cs[5].posX 2450m
param *.cs[5].posY 180m
param *.cs[5].posZ 524m
param *.cs[6].posX 3140m
param *.cs[6].posY 1790m
param *.cs[6].posZ 606m
param *.numCSs 3
param *.uav[*].replacementMethod 2
param *.uav[*].weightedSumWeight 0.35
param *.missionControl.replacementSearchMethod 1
param *.numUAVs 55
param *.numCSs 3
param *.numUAVs 100
param *.*.timeStep 10s
param *.uav[*].commandPreviewCommandCount 20
param *.missionControl.missionFiles "\"missions\\\\Szenario_WB_Hotel_Gabelbach_Mission_Hotel.waypoints,missions\\\\Szenario_WB_Hotel_Gabelbach_Mission_Kickelhahn.waypoints,missions\\\\Szenario_WB_Hotel_Gabelbach_Mission_Ilmenau_Sportplatz.waypoints,missions\\\\Szenario_WB_Hotel_Gabelbach_Mission_Manebach_Mitte.waypoints,missions\\\\Szenario_WB_Hotel_Gabelbach_Mission_Manebach_Sued.waypoints,missions\\\\Szenario_WB_Hotel_Gabelbach_Hover_HoheSchlaufe.waypoints,missions\\\\Szenario_WB_Hotel_Gabelbach_Hover_Kickelhahn.waypoints,missions\\\\Szenario_WB_Hotel_Gabelbach_Hover_Gabelbachskopf.waypoints,missions\\\\Szenario_WB_Hotel_Gabelbach_Hover_Dachskopf.waypoints\""
param *.uav[0].startX 3537m
param *.uav[0].startY 965m
param *.uav[0].startZ 539m
param *.uav[1].startX 312m
param *.uav[1].startY 1262m
param *.uav[1].startZ 540m
param *.uav[2].startX 2185m
param *.uav[2].startY 3026m
param *.uav[2].startZ 778m
param *.uav[3].startX 3537m
param *.uav[3].startY 965m
param *.uav[3].startZ 539m
param *.uav[4].startX 312m
param *.uav[4].startY 1262m
param *.uav[4].startZ 540m
param *.uav[5].startX 2185m
param *.uav[5].startY 3026m
param *.uav[5].startZ 778m
param *.uav[6].startX 3537m
param *.uav[6].startY 965m
param *.uav[6].startZ 539m
param *.uav[7].startX 312m
param *.uav[7].startY 1262m
param *.uav[7].startZ 540m
param *.uav[8].startX 2185m
param *.uav[8].startY 3026m
param *.uav[8].startZ 778m
param *.uav[9].startX 3537m
param *.uav[9].startY 965m
param *.uav[9].startZ 539m
param *.uav[10].startX 3537m
param *.uav[10].startY 965m
param *.uav[10].startZ 539m
param *.uav[11].startX 312m
param *.uav[11].startY 1262m
param *.uav[11].startZ 540m
param *.uav[12].startX 2185m
param *.uav[12].startY 3026m
param *.uav[12].startZ 778m
param *.uav[13].startX 3537m
param *.uav[13].startY 965m
param *.uav[13].startZ 539m
param *.uav[14].startX 312m
param *.uav[14].startY 1262m
param *.uav[14].startZ 540m
param *.uav[15].startX 2185m
param *.uav[15].startY 3026m
param *.uav[15].startZ 778m
param *.uav[16].startX 3537m
param *.uav[16].startY 965m
param *.uav[16].startZ 539m
param *.uav[17].startX 312m
param *.uav[17].startY 1262m
param *.uav[17].startZ 540m
param *.uav[18].startX 2185m
param *.uav[18].startY 3026m
param *.uav[18].startZ 778m
param *.uav[19].startX 3537m
param *.uav[19].startY 965m
param *.uav[19].startZ 539m
param *.uav[20].startX 3537m
param *.uav[20].startY 965m
param *.uav[20].startZ 539m
param *.uav[21].startX 312m
param *.uav[21].startY 1262m
param *.uav[21].startZ 540m
param *.uav[22].startX 2185m
param *.uav[22].startY 3026m
param *.uav[22].startZ 778m
param *.uav[23].startX 3537m
param *.uav[23].startY 965m
param *.uav[23].startZ 539m
param *.uav[24].startX 312m
param *.uav[24].startY 1262m
param *.uav[24].startZ 540m
param *.uav[25].startX 2185m
param *.uav[25].startY 3026m
param *.uav[25].startZ 778m
param *.uav[26].startX 3537m
param *.uav[26].startY 965m
param *.uav[26].startZ 539m
param *.uav[27].startX 312m
param *.uav[27].startY 1262m
param *.uav[27].startZ 540m
param *.uav[28].startX 2185m
param *.uav[28].startY 3026m
param *.uav[28].startZ 778m
param *.uav[29].startX 3537m
param *.uav[29].startY 965m
param *.uav[29].startZ 539m
param *.uav[30].startX 3537m
param *.uav[30].startY 965m
param *.uav[30].startZ 539m
param *.uav[31].startX 312m
param *.uav[31].startY 1262m
param *.uav[31].startZ 540m
param *.uav[32].startX 2185m
param *.uav[32].startY 3026m
param *.uav[32].startZ 778m
param *.uav[33].startX 3537m
param *.uav[33].startY 965m
param *.uav[33].startZ 539m
param *.uav[34].startX 312m
param *.uav[34].startY 1262m
param *.uav[34].startZ 540m
param *.uav[35].startX 2185m
param *.uav[35].startY 3026m
param *.uav[35].startZ 778m
param *.uav[36].startX 3537m
param *.uav[36].startY 965m
param *.uav[36].startZ 539m
param *.uav[37].startX 312m
param *.uav[37].startY 1262m
param *.uav[37].startZ 540m
param *.uav[38].startX 2185m
param *.uav[38].startY 3026m
param *.uav[38].startZ 778m
param *.uav[39].startX 3537m
param *.uav[39].startY 965m
param *.uav[39].startZ 539m
param *.uav[40].startX 3537m
param *.uav[40].startY 965m
param *.uav[40].startZ 539m
param *.uav[41].startX 312m
param *.uav[41].startY 1262m
param *.uav[41].startZ 540m
param *.uav[42].startX 2185m
param *.uav[42].startY 3026m
param *.uav[42].startZ 778m
param *.uav[43].startX 3537m
param *.uav[43].startY 965m
param *.uav[43].startZ 539m
param *.uav[44].startX 312m
param *.uav[44].startY 1262m
param *.uav[44].startZ 540m
param *.uav[45].startX 2185m
param *.uav[45].startY 3026m
param *.uav[45].startZ 778m
param *.uav[46].startX 3537m
param *.uav[46].startY 965m
param *.uav[46].startZ 539m
param *.uav[47].startX 312m
param *.uav[47].startY 1262m
param *.uav[47].startZ 540m
param *.uav[48].startX 2185m
param *.uav[48].startY 3026m
param *.uav[48].startZ 778m
param *.uav[49].startX 3537m
param *.uav[49].startY 965m
param *.uav[49].startZ 539m
param *.uav[50].startX 3537m
param *.uav[50].startY 965m
param *.uav[50].startZ 539m
param *.uav[51].startX 312m
param *.uav[51].startY 1262m
param *.uav[51].startZ 540m
param *.uav[52].startX 2185m
param *.uav[52].startY 3026m
param *.uav[52].startZ 778m
param *.uav[53].startX 3537m
param *.uav[53].startY 965m
param *.uav[53].startZ 539m
param *.uav[54].startX 312m
param *.uav[54].startY 1262m
param *.uav[54].startZ 540m
param *.uav[55].startX 2185m
param *.uav[55].startY 3026m
param *.uav[55].startZ 778m
param *.uav[56].startX 3537m
param *.uav[56].startY 965m
param *.uav[56].startZ 539m
param *.uav[57].startX 312m
param *.uav[57].startY 1262m
param *.uav[57].startZ 540m
param *.uav[58].startX 2185m
param *.uav[58].startY 3026m
param *.uav[58].startZ 778m
param *.uav[59].startX 3537m
param *.uav[59].startY 965m
param *.uav[59].startZ 539m
param *.uav[60].startX 3537m
param *.uav[60].startY 965m
param *.uav[60].startZ 539m
param *.uav[61].startX 312m
param *.uav[61].startY 1262m
param *.uav[61].startZ 540m
param *.uav[62].startX 2185m
param *.uav[62].startY 3026m
param *.uav[62].startZ 778m
param *.uav[63].startX 3537m
param *.uav[63].startY 965m
param *.uav[63].startZ 539m
param *.uav[64].startX 312m
param *.uav[64].startY 1262m
param *.uav[64].startZ 540m
param *.uav[65].startX 2185m
param *.uav[65].startY 3026m
param *.uav[65].startZ 778m
param *.uav[66].startX 3537m
param *.uav[66].startY 965m
param *.uav[66].startZ 539m
param *.uav[67].startX 312m
param *.uav[67].startY 1262m
param *.uav[67].startZ 540m
param *.uav[68].startX 2185m
param *.uav[68].startY 3026m
param *.uav[68].startZ 778m
param *.uav[69].startX 3537m
param *.uav[69].startY 965m
param *.uav[69].startZ 539m
param *.uav[70].startX 3537m
param *.uav[70].startY 965m
param *.uav[70].startZ 539m
param *.uav[71].startX 312m
param *.uav[71].startY 1262m
param *.uav[71].startZ 540m
param *.uav[72].startX 2185m
param *.uav[72].startY 3026m
param *.uav[72].startZ 778m
param *.uav[73].startX 3537m
param *.uav[73].startY 965m
param *.uav[73].startZ 539m
param *.uav[74].startX 312m
param *.uav[74].startY 1262m
param *.uav[74].startZ 540m
param *.uav[75].startX 2185m
param *.uav[75].startY 3026m
param *.uav[75].startZ 778m
param *.uav[76].startX 3537m
param *.uav[76].startY 965m
param *.uav[76].startZ 539m
param *.uav[77].startX 312m
param *.uav[77].startY 1262m
param *.uav[77].startZ 540m
param *.uav[78].startX 2185m
param *.uav[78].startY 3026m
param *.uav[78].startZ 778m
param *.uav[79].startX 3537m
param *.uav[79].startY 965m
param *.uav[79].startZ 539m
param *.uav[80].startX 3537m
param *.uav[80].startY 965m
param *.uav[80].startZ 539m
param *.uav[81].startX 312m
param *.uav[81].startY 1262m
param *.uav[81].startZ 540m
param *.uav[82].startX 2185m
param *.uav[82].startY 3026m
param *.uav[82].startZ 778m
param *.uav[83].startX 3537m
param *.uav[83].startY 965m
param *.uav[83].startZ 539m
param *.uav[84].startX 312m
param *.uav[84].startY 1262m
param *.uav[84].startZ 540m
param *.uav[85].startX 2185m
param *.uav[85].startY 3026m
param *.uav[85].startZ 778m
param *.uav[86].startX 3537m
param *.uav[86].startY 965m
param *.uav[86].startZ 539m
param *.uav[87].startX 312m
param *.uav[87].startY 1262m
param *.uav[87].startZ 540m
param *.uav[88].startX 2185m
param *.uav[88].startY 3026m
param *.uav[88].startZ 778m
param *.uav[89].startX 3537m
param *.uav[89].startY 965m
param *.uav[89].startZ 539m
param *.uav[90].startX 3537m
param *.uav[90].startY 965m
param *.uav[90].startZ 539m
param *.uav[91].startX 312m
param *.uav[91].startY 1262m
param *.uav[91].startZ 540m
param *.uav[92].startX 2185m
param *.uav[92].startY 3026m
param *.uav[92].startZ 778m
param *.uav[93].startX 3537m
param *.uav[93].startY 965m
param *.uav[93].startZ 539m
param *.uav[94].startX 312m
param *.uav[94].startY 1262m
param *.uav[94].startZ 540m
param *.uav[95].startX 2185m
param *.uav[95].startY 3026m
param *.uav[95].startZ 778m
param *.uav[96].startX 3537m
param *.uav[96].startY 965m
param *.uav[96].startZ 539m
param *.uav[97].startX 312m
param *.uav[97].startY 1262m
param *.uav[97].startZ 540m
param *.uav[98].startX 2185m
param *.uav[98].startY 3026m
param *.uav[98].startZ 778m
param *.uav[99].startX 3537m
param *.uav[99].startY 965m
param *.uav[99].startZ 539m
param *.osgEarthScene.scene "\"boston.earth\""
param *.playgroundLatitude 42.3558
param *.playgroundLongitude -71.0677
param *.playgroundWidth 400m
param *.playgroundHeight 200m
param *.channelController.connectionColor "\"#0000FF40\""
param *.channelController.showConnections false
param *.uav[*].modelURL "\"quadrocopter.small.obj.15.scale.0,0,90.rot\""
param *.uav[*].labelColor "\"#FF7C00CC\""
param *.uav[*].label2Color "\"#FF7C00EE\""
param *.uav[*].batteryCapacity 5200mAh
param *.uav[*].batteryRemaining uav[index].batteryCapacity
param *.uav[*].predictionQuantile 0.95
param *.uav[*].replacementMethod 2
param *.uav[*].weightedSumWeight 0.5
param *.cs[*].modelURL "\"chargingstation_v1.osgt.2.scale.0,0,0.rot.0,0,-15e-1.trans\""
param *.cs[*].spotsWaiting 999
param *.cs[*].spotsCharging 999
param *.cs[*].chargeEffectivenessPercentage 100
param *.cs[*].nonLinearPhaseStartPercentage 85
param *.cs[*].chargeCurrent 6.0A
param *.cs[*].prioritizeFastCharge true
param *.missionControl.replacementSearchMethod 0
param *.*.timeStep 9s

scalar OsgEarthNet.uav[0] utilizationSecMission 46884.486729296
scalar OsgEarthNet.uav[0] utilizationSecMaintenance 20091.700416267
scalar OsgEarthNet.uav[0] utilizationSecCharge 190901.80885444
scalar OsgEarthNet.uav[0] utilizationSecIdle 1322.003
scalar OsgEarthNet.uav[0] utilizationEnergyMission 225260.11839676
scalar OsgEarthNet.uav[0] utilizationEnergyMaintenance 91680.091934204
scalar OsgEarthNet.uav[0] utilizationEnergyCharge 315586.13110352
scalar OsgEarthNet.uav[0] utilizationEnergyOverdrawMission 0
scalar OsgEarthNet.uav[0] utilizationEnergyOverdrawMaintenance 0
scalar OsgEarthNet.uav[0] utilizationCountMissions 72
scalar OsgEarthNet.uav[0] utilizationCountManeuversMission 1333
scalar OsgEarthNet.uav[0] utilizationCountManeuversMaintenance 144
scalar OsgEarthNet.uav[0] utilizationCountChargeState 72
scalar OsgEarthNet.uav[0] utilizationCountOverdrawnAfterMission 0
scalar OsgEarthNet.uav[0] utilizationCountIdleState 1
scalar OsgEarthNet.uav[0] utilizationFail 0
scalar OsgEarthNet.uav[0] simulationTime 259200
scalar OsgEarthNet.uav[1] utilizationSecMission 38752.170839973
scalar OsgEarthNet.uav[1] utilizationSecMaintenance 27781.002927865
scalar OsgEarthNet.uav[1] utilizationSecCharge 190681.38414347
scalar OsgEarthNet.uav[1] utilizationSecIdle 1985.4410886909
scalar OsgEarthNet.uav[1] utilizationEnergyMission 187962.61769104
scalar OsgEarthNet.uav[1] utilizationEnergyMaintenance 132586.89979553
scalar OsgEarthNet.uav[1] utilizationEnergyCharge 318414.74938965
scalar OsgEarthNet.uav[1] utilizationEnergyOverdrawMission 0
scalar OsgEarthNet.uav[1] utilizationEnergyOverdrawMaintenance 0
scalar OsgEarthNet.uav[1] utilizationCountMissions 78
scalar OsgEarthNet.uav[1] utilizationCountManeuversMission 1215
scalar OsgEarthNet.uav[1] utilizationCountManeuversMaintenance 156
scalar OsgEarthNet.uav[1] utilizationCountChargeState 78
scalar OsgEarthNet.uav[1] utilizationCountOverdrawnAfterMission 0
scalar OsgEarthNet.uav[1] utilizationCountIdleState 1
scalar OsgEarthNet.uav[1] utilizationFail 0
scalar OsgEarthNet.uav[1] simulationTime 259200
scalar OsgEarthNet.uav[2] utilizationSecMission 43958.158169789
scalar OsgEarthNet.uav[2] utilizationSecMaintenance 23627.818497768
scalar OsgEarthNet.uav[2] utilizationSecCharge 190174.59698515
scalar OsgEarthNet.uav[2] utilizationSecIdle 1439.4253472904
scalar OsgEarthNet.uav[2] utilizationEnergyMission 212623.27288055
scalar OsgEarthNet.uav[2] utilizationEnergyMaintenance 109765.62469101
scalar OsgEarthNet.uav[2] utilizationEnergyCharge 318835.24511719
scalar OsgEarthNet.uav[2] utilizationEnergyOverdrawMission 0
scalar OsgEarthNet.uav[2] utilizationEnergyOverdrawMaintenance 0
scalar OsgEarthNet.uav[2] utilizationCountMissions 76
scalar OsgEarthNet.uav[2] utilizationCountManeuversMission 1344
scalar OsgEarthNet.uav[2] utilizationCountManeuversMaintenance 152
scalar OsgEarthNet.uav[2] utilizationCountChargeState 76
scalar OsgEarthNet.uav[2] utilizationCountOverdrawnAfterMission 0
scalar OsgEarthNet.uav[2] utilizationCountIdleState 1
scalar OsgEarthNet.uav[2] utilizationFail 0
scalar OsgEarthNet.uav[2] simulationTime 259200
scalar OsgEarthNet.uav[3] utilizationSecMission 41831.787503849
scalar OsgEarthNet.uav[3] utilizationSecMaintenance 25093.460283574
scalar OsgEarthNet.uav[3] utilizationSecCharge 190602.61139943
scalar OsgEarthNet.uav[3] utilizationSecIdle 1672.1398131443
scalar OsgEarthNet.uav[3] utilizationEnergyMission 202177.97522736
scalar OsgEarthNet.uav[3] utilizationEnergyMaintenance 117957.25170135
scalar OsgEarthNet.uav[3] utilizationEnergyCharge 317395.43383789
scalar OsgEarthNet.uav[3] utilizationEnergyOverdrawMission 0
scalar OsgEarthNet.uav[3] utilizationEnergyOverdrawMaintenance 0
scalar OsgEarthNet.uav[3] utilizationCountMissions 76
scalar OsgEarthNet.uav[3] utilizationCountManeuversMission 1194
scalar OsgEarthNet.uav[3] utilizationCountManeuversMaintenance 152
scalar OsgEarthNet.uav[3] utilizationCountChargeState 76
scalar OsgEarthNet.uav[3] utilizationCountOverdrawnAfterMission 0
scalar OsgEarthNet.uav[3] utilizationCountIdleState 1
scalar OsgEarthNet.uav[3] utilizationFail 0
scalar OsgEarthNet.uav[3] simulationTime 259200
scalar OsgEarthNet.uav[4] utilizationSecMission 39188.190686652
scalar OsgEarthNet.uav[4] utilizationSecMaintenance 26717.102614312
scalar OsgEarthNet.uav[4] utilizationSecCharge 190570
scalar OsgEarthNet.uav[4] utilizationSecIdle 2724.7056990363
scalar OsgEarthNet.uav[4] utilizationEnergyMission 192072.05796745
scalar OsgEarthNet.uav[4] utilizationEnergyMaintenance 126488.36750793
scalar OsgEarthNet.uav[4] utilizationEnergyCharge 316630.40087891
scalar OsgEarthNet.uav[4] utilizationEnergyOverdrawMission 0
scalar OsgEarthNet.uav[4] utilizationEnergyOverdrawMaintenance 0
scalar OsgEarthNet.uav[4] utilizationCountMissions 75
scalar OsgEarthNet.uav[4] utilizationCountManeuversMission 1319
scalar OsgEarthNet.uav[4] utilizationCountManeuversMaintenance 151
scalar OsgEarthNet.uav[4] utilizationCountChargeState 75
scalar OsgEarthNet.uav[4] utilizationCountOverdrawnAfterMission 0
scalar OsgEarthNet.uav[4] utilizationCountIdleState 1
scalar OsgEarthNet.uav[4] utilizationFail 0
scalar OsgEarthNet.uav[4] simulationTime 259200
scalar OsgEarthNet.uav[5] utilizationSecMission 39376.16113509
scalar OsgEarthNet.uav[5] utilizationSecMaintenance 27331.188789998
scalar OsgEarthNet.uav[5] utilizationSecCharge 191730.64807491
scalar OsgEarthNet.uav[5] utilizationSecIdle 762.001
scalar OsgEarthNet.uav[5] utilizationEnergyMission 194110.9548645
scalar OsgEarthNet.uav[5] utilizationEnergyMaintenance 129104.9550209
scalar OsgEarthNet.uav[5] utilizationEnergyCharge 321332.93725586
scalar OsgEarthNet.uav[5] utilizationEnergyOverdrawMission 0
scalar OsgEarthNet.uav[5] utilizationEnergyOverdrawMaintenance 0
scalar OsgEarthNet.uav[5] utilizationCountMissions 78
scalar OsgEarthNet.uav[5] utilizationCountManeuversMission 1357
scalar OsgEarthNet.uav[5] utilizationCountManeuversMaintenance 156
scalar OsgEarthNet.uav[5] utilizationCountChargeState 78
scalar OsgEarthNet.uav[5] utilizationCountOverdrawnAfterMission 0
scalar OsgEarthNet.uav[5] utilizationCountIdleState 1
scalar OsgEarthNet.uav[5] utilizationFail 0
scalar OsgEarthNet.uav[5] simulationTime 259200
scalar OsgEarthNet.uav[6] utilizationSecMission 40830.645903489
scalar OsgEarthNet.uav[6] utilizationSecMaintenance 25046.587131172
scalar OsgEarthNet.uav[6] utilizationSecCharge 190880
scalar OsgEarthNet.uav[6] utilizationSecIdle 2442.765965339
scalar OsgEarthNet.uav[6] utilizationEnergyMission 196307.10005995
scalar OsgEarthNet.uav[6] utilizationEnergyMaintenance 118039.7253952
scalar OsgEarthNet.uav[6] utilizationEnergyCharge 310181.19384766
scalar OsgEarthNet.uav[6] utilizationEnergyOverdrawMission 0
scalar OsgEarthNet.uav[6] utilizationEnergyOverdrawMaintenance 0
scalar OsgEarthNet.uav[6] utilizationCountMissions 76
scalar OsgEarthNet.uav[6] utilizationCountManeuversMission 1150
scalar OsgEarthNet.uav[6] utilizationCountManeuversMaintenance 153
scalar OsgEarthNet.uav[6] utilizationCountChargeState 76
scalar OsgEarthNet.uav[6] utilizationCountOverdrawnAfterMission 0
scalar OsgEarthNet.uav[6] utilizationCountIdleState 1
scalar OsgEarthNet.uav[6] utilizationFail 0
scalar OsgEarthNet.uav[6] simulationTime 259200
scalar OsgEarthNet.uav[7] utilizationSecMission 42314.999268857
scalar OsgEarthNet.uav[7] utilizationSecMaintenance 24002.994731143
scalar OsgEarthNet.uav[7] utilizationSecCharge 190120
scalar OsgEarthNet.uav[7] utilizationSecIdle 2762.005
scalar OsgEarthNet.uav[7] utilizationEnergyMission 206384.7399568
scalar OsgEarthNet.uav[7] utilizationEnergyMaintenance 111427.04324341
scalar OsgEarthNet.uav[7] utilizationEnergyCharge 315399.29443359
scalar OsgEarthNet.uav[7] utilizationEnergyOverdrawMission 0
scalar OsgEarthNet.uav[7] utilizationEnergyOverdrawMaintenance 0
scalar OsgEarthNet.uav[7] utilizationCountMissions 75
scalar OsgEarthNet.uav[7] utilizationCountManeuversMission 1320
scalar OsgEarthNet.uav[7] utilizationCountManeuversMaintenance 151
scalar OsgEarthNet.uav[7] utilizationCountChargeState 75
scalar OsgEarthNet.uav[7] utilizationCountOverdrawnAfterMission 0
scalar OsgEarthNet.uav[7] utilizationCountIdleState 1
scalar OsgEarthNet.uav[7] utilizationFail 0
scalar OsgEarthNet.uav[7] simulationTime 259200
scalar OsgEarthNet.uav[8] utilizationSecMission 44843.749076943
scalar OsgEarthNet.uav[8] utilizationSecMaintenance 22057.365958231
scalar OsgEarthNet.uav[8] utilizationSecCharge 191609.66435091
scalar OsgEarthNet.uav[8] utilizationSecIdle 689.21961391566
scalar OsgEarthNet.uav[8] utilizationEnergyMission 214851.14020157
scalar OsgEarthNet.uav[8] utilizationEnergyMaintenance 102401.41530228
scalar OsgEarthNet.uav[8] utilizationEnergyCharge 314714.32983398
scalar OsgEarthNet.uav[8] utilizationEnergyOverdrawMission 0
scalar OsgEarthNet.uav[8] utilizationEnergyOverdrawMaintenance 0
scalar OsgEarthNet.uav[8] utilizationCountMissions 75
scalar OsgEarthNet.uav[8] utilizationCountManeuversMission 1271
scalar OsgEarthNet.uav[8] utilizationCountManeuversMaintenance 150
scalar OsgEarthNet.uav[8] utilizationCountChargeState 75
scalar OsgEarthNet.uav[8] utilizationCountOverdrawnAfterMission 0
scalar OsgEarthNet.uav[8] utilizationCountIdleState 1
scalar OsgEarthNet.uav[8] utilizationFail 0
scalar OsgEarthNet.uav[8] simulationTime 259200
scalar OsgEarthNet.uav[9] utilizationSecMission 43201.351846639
scalar OsgEarthNet.uav[9] utilizationSecMaintenance 23724.34512944
scalar OsgEarthNet.uav[9] utilizationSecCharge 189333.39934376
scalar OsgEarthNet.uav[9] utilizationSecIdle 2940.9026801665
scalar OsgEarthNet.uav[9] utilizationEnergyMission 207941.87907028
scalar OsgEarthNet.uav[9] utilizationEnergyMaintenance 110759.651577
scalar OsgEarthNet.uav[9] utilizationEnergyCharge 314766.94287109
scalar OsgEarthNet.uav[9] utilizationEnergyOverdrawMission 0
scalar OsgEarthNet.uav[9] utilizationEnergyOverdrawMaintenance 0
scalar OsgEarthNet.uav[9] utilizationCountMissions 76
scalar OsgEarthNet.uav[9] utilizationCountManeuversMission 1248
scalar OsgEarthNet.uav[9] utilizationCountManeuversMaintenance 152
scalar OsgEarthNet.uav[9] utilizationCountChargeState 76
scalar OsgEarthNet.uav[9] utilizationCountOverdrawnAfterMission 0
scalar OsgEarthNet.uav[9] utilizationCountIdleState 1
scalar OsgEarthNet.uav[9] utilizationFail 0
scalar OsgEarthNet.uav[9] simulationTime 259200
scalar OsgEarthNet.uav[10] utilizationSecMission 39419.672527122
scalar OsgEarthNet.uav[10] utilizationSecMaintenance 27348.477109304
scalar OsgEarthNet.uav[10] utilizationSecCharge 191549.84736357
scalar OsgEarthNet.uav[10] utilizationSecIdle 882.002
scalar OsgEarthNet.uav[10] utilizationEnergyMission 192370.82600784
scalar OsgEarthNet.uav[10] utilizationEnergyMaintenance 129823.84983063
scalar OsgEarthNet.uav[10] utilizationEnergyCharge 320148.83520508
scalar OsgEarthNet.uav[10] utilizationEnergyOverdrawMission 0
scalar OsgEarthNet.uav[10] utilizationEnergyOverdrawMaintenance 0
scalar OsgEarthNet.uav[10] utilizationCountMissions 78
scalar OsgEarthNet.uav[10] utilizationCountManeuversMission 1242
scalar OsgEarthNet.uav[10] utilizationCountManeuversMaintenance 156
scalar OsgEarthNet.uav[10] utilizationCountChargeState 78
scalar OsgEarthNet.uav[10] utilizationCountOverdrawnAfterMission 0
scalar OsgEarthNet.uav[10] utilizationCountIdleState 1
scalar OsgEarthNet.uav[10] utilizationFail 0
scalar OsgEarthNet.uav[10] simulationTime 259200
scalar OsgEarthNet.uav[11] utilizationSecMission 41525.318490623
scalar OsgEarthNet.uav[11] utilizationSecMaintenance 25839.673951546
scalar OsgEarthNet.uav[11] utilizationSecCharge 189417.690476
scalar OsgEarthNet.uav[11] utilizationSecIdle 2417.3160818306
scalar OsgEarthNet.uav[11] utilizationEnergyMission 199030.062397
scalar OsgEarthNet.uav[11] utilizationEnergyMaintenance 121881.5459938
scalar OsgEarthNet.uav[11] utilizationEnergyCharge 317262.20202637
scalar OsgEarthNet.uav[11] utilizationEnergyOverdrawMission 0
scalar OsgEarthNet.uav[11] utilizationEnergyOverdrawMaintenance 0
scalar OsgEarthNet.uav[11] utilizationCountMissions 78
scalar OsgEarthNet.uav[11] utilizationCountManeuversMission 1241
scalar OsgEarthNet.uav[11] utilizationCountManeuversMaintenance 156
scalar OsgEarthNet.uav[11] utilizationCountChargeState 78
scalar OsgEarthNet.uav[11] utilizationCountOverdrawnAfterMission 0
scalar OsgEarthNet.uav[11] utilizationCountIdleState 1
scalar OsgEarthNet.uav[11] utilizationFail 0
scalar OsgEarthNet.uav[11] simulationTime 259200
scalar OsgEarthNet.uav[12] utilizationSecMission 42270.931106448
scalar OsgEarthNet.uav[12] utilizationSecMaintenance 24361.367226622
scalar OsgEarthNet.uav[12] utilizationSecCharge 191713.20272575
scalar OsgEarthNet.uav[12] utilizationSecIdle 854.49794117561
scalar OsgEarthNet.uav[12] utilizationEnergyMission 204766.40262604
scalar OsgEarthNet.uav[12] utilizationEnergyMaintenance 115161.77981567
scalar OsgEarthNet.uav[12] utilizationEnergyCharge 317195.73779297
scalar OsgEarthNet.uav[12] utilizationEnergyOverdrawMission 0
scalar OsgEarthNet.uav[12] utilizationEnergyOverdrawMaintenance 0
scalar OsgEarthNet.uav[12] utilizationCountMissions 75
scalar OsgEarthNet.uav[12] utilizationCountManeuversMission 1317
scalar OsgEarthNet.uav[12] utilizationCountManeuversMaintenance 150
scalar OsgEarthNet.uav[12] utilizationCountChargeState 75
scalar OsgEarthNet.uav[12] utilizationCountOverdrawnAfterMission 0
scalar OsgEarthNet.uav[12] utilizationCountIdleState 1
scalar OsgEarthNet.uav[12] utilizationFail 0
scalar OsgEarthNet.uav[12] simulationTime 259200
scalar OsgEarthNet.uav[13] utilizationSecMission 45304.89672135
scalar OsgEarthNet.uav[13] utilizationSecMaintenance 21433.163272076
scalar OsgEarthNet.uav[13] utilizationSecCharge 190380
scalar OsgEarthNet.uav[13] utilizationSecIdle 2081.939006574
scalar OsgEarthNet.uav[13] utilizationEnergyMission 217350.62468719
scalar OsgEarthNet.uav[13] utilizationEnergyMaintenance 98772.49194461
scalar OsgEarthNet.uav[13] utilizationEnergyCharge 310582.71533203
scalar OsgEarthNet.uav[13] utilizationEnergyOverdrawMission 0
scalar OsgEarthNet.uav[13] utilizationEnergyOverdrawMaintenance 0
scalar OsgEarthNet.uav[13] utilizationCountMissions 74
scalar OsgEarthNet.uav[13] utilizationCountManeuversMission 1240
scalar OsgEarthNet.uav[13] utilizationCountManeuversMaintenance 148
scalar OsgEarthNet.uav[13] utilizationCountChargeState 73
scalar OsgEarthNet.uav[13] utilizationCountOverdrawnAfterMission 0
scalar OsgEarthNet.uav[13] utilizationCountIdleState 1
scalar OsgEarthNet.uav[13] utilizationFail 0
scalar OsgEarthNet.uav[13] simulationTime 259200
scalar OsgEarthNet.uav[14] utilizationSecMission 44966.411130273
scalar OsgEarthNet.uav[14] utilizationSecMaintenance 22488.460277355
scalar OsgEarthNet.uav[14] utilizationSecCharge 189503.12359237
scalar OsgEarthNet.uav[14] utilizationSecIdle 2242.004
scalar OsgEarthNet.uav[14] utilizationEnergyMission 218772.04489517
scalar OsgEarthNet.uav[14] utilizationEnergyMaintenance 104948.28514481
scalar OsgEarthNet.uav[14] utilizationEnergyCharge 318491.59094238
scalar OsgEarthNet.uav[14] utilizationEnergyOverdrawMission 0
scalar OsgEarthNet.uav[14] utilizationEnergyOverdrawMaintenance 0
scalar OsgEarthNet.uav[14] utilizationCountMissions 75
scalar OsgEarthNet.uav[14] utilizationCountManeuversMission 1308
scalar OsgEarthNet.uav[14] utilizationCountManeuversMaintenance 150
scalar OsgEarthNet.uav[14] utilizationCountChargeState 75
scalar OsgEarthNet.uav[14] utilizationCountOverdrawnAfterMission 0
scalar OsgEarthNet.uav[14] utilizationCountIdleState 1
scalar OsgEarthNet.uav[14] utilizationFail 0
scalar OsgEarthNet.uav[14] simulationTime 259200
scalar OsgEarthNet.uav[15] utilizationSecMission 47930.697120332
scalar OsgEarthNet.uav[15] utilizationSecMaintenance 19867.301879668
scalar OsgEarthNet.uav[15] utilizationSecCharge 191400
scalar OsgEarthNet.uav[15] utilizationSecIdle 2
scalar OsgEarthNet.uav[15] utilizationEnergyMission 228406.86721205
scalar OsgEarthNet.uav[15] utilizationEnergyMaintenance 91672.400707245
scalar OsgEarthNet.uav[15] utilizationEnergyCharge 317790.02709961
scalar OsgEarthNet.uav[15] utilizationEnergyOverdrawMission 0
scalar OsgEarthNet.uav[15] utilizationEnergyOverdrawMaintenance 0
scalar OsgEarthNet.uav[15] utilizationCountMissions 73
scalar OsgEarthNet.uav[15] utilizationCountManeuversMission 1412
scalar OsgEarthNet.uav[15] utilizationCountManeuversMaintenance 147
scalar OsgEarthNet.uav[15] utilizationCountChargeState 73
scalar OsgEarthNet.uav[15] utilizationCountOverdrawnAfterMission 0
scalar OsgEarthNet.uav[15] utilizationCountIdleState 1
scalar OsgEarthNet.uav[15] utilizationFail 0
scalar OsgEarthNet.uav[15] simulationTime 259200
scalar OsgEarthNet.uav[16] utilizationSecMission 39683.898738925
scalar OsgEarthNet.uav[16] utilizationSecMaintenance 26876.275207043
scalar OsgEarthNet.uav[16] utilizationSecCharge 191738.31139308
scalar OsgEarthNet.uav[16] utilizationSecIdle 901.51366094966
scalar OsgEarthNet.uav[16] utilizationEnergyMission 193574.69830704
scalar OsgEarthNet.uav[16] utilizationEnergyMaintenance 126984.11641693
scalar OsgEarthNet.uav[16] utilizationEnergyCharge 320631.38696289
scalar OsgEarthNet.uav[16] utilizationEnergyOverdrawMission 0
scalar OsgEarthNet.uav[16] utilizationEnergyOverdrawMaintenance 0
scalar OsgEarthNet.uav[16] utilizationCountMissions 77
scalar OsgEarthNet.uav[16] utilizationCountManeuversMission 1319
scalar OsgEarthNet.uav[16] utilizationCountManeuversMaintenance 154
scalar OsgEarthNet.uav[16] utilizationCountChargeState 77
scalar OsgEarthNet.uav[16] utilizationCountOverdrawnAfterMission 0
scalar OsgEarthNet.uav[16] utilizationCountIdleState 1
scalar OsgEarthNet.uav[16] utilizationFail 0
scalar OsgEarthNet.uav[16] simulationTime 259200
scalar OsgEarthNet.uav[17] utilizationSecMission 39018.63755878
scalar OsgEarthNet.uav[17] utilizationSecMaintenance 27328.843214985
scalar OsgEarthNet.uav[17] utilizationSecCharge 192267.90633672
scalar OsgEarthNet.uav[17] utilizationSecIdle 584.61188951643
scalar OsgEarthNet.uav[17] utilizationEnergyMission 188067.28896332
scalar OsgEarthNet.uav[17] utilizationEnergyMaintenance 128764.8272171
scalar OsgEarthNet.uav[17] utilizationEnergyCharge 312636.61230469
scalar OsgEarthNet.uav[17] utilizationEnergyOverdrawMission 0
scalar OsgEarthNet.uav[17] utilizationEnergyOverdrawMaintenance 0
scalar OsgEarthNet.uav[17] utilizationCountMissions 79
scalar OsgEarthNet.uav[17] utilizationCountManeuversMission 1151
scalar OsgEarthNet.uav[17] utilizationCountManeuversMaintenance 158
scalar OsgEarthNet.uav[17] utilizationCountChargeState 79
scalar OsgEarthNet.uav[17] utilizationCountOverdrawnAfterMission 0
scalar OsgEarthNet.uav[17] utilizationCountIdleState 1
scalar OsgEarthNet.uav[17] utilizationFail 0
scalar OsgEarthNet.uav[17] simulationTime 259200
scalar OsgEarthNet.uav[18] utilizationSecMission 38843.335880083
scalar OsgEarthNet.uav[18] utilizationSecMaintenance 26975.779905282
scalar OsgEarthNet.uav[18] utilizationSecCharge 192613.4329506
scalar OsgEarthNet.uav[18] utilizationSecIdle 767.4502640309
scalar OsgEarthNet.uav[18] utilizationEnergyMission 191718.44670868
scalar OsgEarthNet.uav[18] utilizationEnergyMaintenance 127178.7971611
scalar OsgEarthNet.uav[18] utilizationEnergyCharge 317777.09838867
scalar OsgEarthNet.uav[18] utilizationEnergyOverdrawMission 0
scalar OsgEarthNet.uav[18] utilizationEnergyOverdrawMaintenance 0
scalar OsgEarthNet.uav[18] utilizationCountMissions 76
scalar OsgEarthNet.uav[18] utilizationCountManeuversMission 1349
scalar OsgEarthNet.uav[18] utilizationCountManeuversMaintenance 152
scalar OsgEarthNet.uav[18] utilizationCountChargeState 76
scalar OsgEarthNet.uav[18] utilizationCountOverdrawnAfterMission 0
scalar OsgEarthNet.uav[18] utilizationCountIdleState 1
scalar OsgEarthNet.uav[18] utilizationFail 0
scalar OsgEarthNet.uav[18] simulationTime 259200
scalar OsgEarthNet.uav[19] utilizationSecMission 45227.799376133
scalar OsgEarthNet.uav[19] utilizationSecMaintenance 21977.527108639
scalar OsgEarthNet.uav[19] utilizationSecCharge 189648.77784064
scalar OsgEarthNet.uav[19] utilizationSecIdle 2345.8946745852
scalar OsgEarthNet.uav[19] utilizationEnergyMission 218172.7135582
scalar OsgEarthNet.uav[19] utilizationEnergyMaintenance 102083.95950699
scalar OsgEarthNet.uav[19] utilizationEnergyCharge 316126.0279541
scalar OsgEarthNet.uav[19] utilizationEnergyOverdrawMission 0
scalar OsgEarthNet.uav[19] utilizationEnergyOverdrawMaintenance 0
scalar OsgEarthNet.uav[19] utilizationCountMissions 74
scalar OsgEarthNet.uav[19] utilizationCountManeuversMission 1235
scalar OsgEarthNet.uav[19] utilizationCountManeuversMaintenance 148
scalar OsgEarthNet.uav[19] utilizationCountChargeState 74
scalar OsgEarthNet.uav[19] utilizationCountOverdrawnAfterMission 0
scalar OsgEarthNet.uav[19] utilizationCountIdleState 1
scalar OsgEarthNet.uav[19] utilizationFail 0
scalar OsgEarthNet.uav[19] simulationTime 259200
scalar OsgEarthNet.uav[20] utilizationSecMission 43427.960666334
scalar OsgEarthNet.uav[20] utilizationSecMaintenance 23033.864031107
scalar OsgEarthNet.uav[20] utilizationSecCharge 192736.17430256
scalar OsgEarthNet.uav[20] utilizationSecIdle 2
scalar OsgEarthNet.uav[20] utilizationEnergyMission 207674.56328201
scalar OsgEarthNet.uav[20] utilizationEnergyMaintenance 107103.7431221
scalar OsgEarthNet.uav[20] utilizationEnergyCharge 319116.61621094
scalar OsgEarthNet.uav[20] utilizationEnergyOverdrawMission 0
scalar OsgEarthNet.uav[20] utilizationEnergyOverdrawMaintenance 0
scalar OsgEarthNet.uav[20] utilizationCountMissions 75
scalar OsgEarthNet.uav[20] utilizationCountManeuversMission 1346
scalar OsgEarthNet.uav[20] utilizationCountManeuversMaintenance 149
scalar OsgEarthNet.uav[20] utilizationCountChargeState 75
scalar OsgEarthNet.uav[20] utilizationCountOverdrawnAfterMission 0
scalar OsgEarthNet.uav[20] utilizationCountIdleState 1
scalar OsgEarthNet.uav[20] utilizationFail 0
scalar OsgEarthNet.uav[20] simulationTime 259200
scalar OsgEarthNet.uav[21] utilizationSecMission 40592.931991811
scalar OsgEarthNet.uav[21] utilizationSecMaintenance 26605.064008189
scalar OsgEarthNet.uav[21] utilizationSecCharge 190320
scalar OsgEarthNet.uav[21] utilizationSecIdle 1682.003
scalar OsgEarthNet.uav[21] utilizationEnergyMission 197014.63738704
scalar OsgEarthNet.uav[21] utilizationEnergyMaintenance 125058.83953476
scalar OsgEarthNet.uav[21] utilizationEnergyCharge 320583.58496094
scalar OsgEarthNet.uav[21] utilizationEnergyOverdrawMission 0
scalar OsgEarthNet.uav[21] utilizationEnergyOverdrawMaintenance 0
scalar OsgEarthNet.uav[21] utilizationCountMissions 77
scalar OsgEarthNet.uav[21] utilizationCountManeuversMission 1254
scalar OsgEarthNet.uav[21] utilizationCountManeuversMaintenance 155
scalar OsgEarthNet.uav[21] utilizationCountChargeState 77
scalar OsgEarthNet.uav[21] utilizationCountOverdrawnAfterMission 0
scalar OsgEarthNet.uav[21] utilizationCountIdleState 1
scalar OsgEarthNet.uav[21] utilizationFail 0
scalar OsgEarthNet.uav[21] simulationTime 259200
scalar OsgEarthNet.uav[22] utilizationSecMission 39037.979182882
scalar OsgEarthNet.uav[22] utilizationSecMaintenance 28200.019817118
scalar OsgEarthNet.uav[22] utilizationSecCharge 191960
scalar OsgEarthNet.uav[22] utilizationSecIdle 2
scalar OsgEarthNet.uav[22] utilizationEnergyMission 194991.09336271
scalar OsgEarthNet.uav[22] utilizationEnergyMaintenance 132949.97875159
scalar OsgEarthNet.uav[22] utilizationEnergyCharge 322339.31591797
scalar OsgEarthNet.uav[22] utilizationEnergyOverdrawMission 0
scalar OsgEarthNet.uav[22] utilizationEnergyOverdrawMaintenance 0
scalar OsgEarthNet.uav[22] utilizationCountMissions 79
scalar OsgEarthNet.uav[22] utilizationCountManeuversMission 1305
scalar OsgEarthNet.uav[22] utilizationCountManeuversMaintenance 158
scalar OsgEarthNet.uav[22] utilizationCountChargeState 79
scalar OsgEarthNet.uav[22] utilizationCountOverdrawnAfterMission 0
scalar OsgEarthNet.uav[22] utilizationCountIdleState 1
scalar OsgEarthNet.uav[22] utilizationFail 0
scalar OsgEarthNet.uav[22] simulationTime 259200
scalar OsgEarthNet.uav[23] utilizationSecMission 44409.870004514
scalar OsgEarthNet.uav[23] utilizationSecMaintenance 22668.453545713
scalar OsgEarthNet.uav[23] utilizationSecCharge 192119.67544977
scalar OsgEarthNet.uav[23] utilizationSecIdle 2
scalar OsgEarthNet.uav[23] utilizationEnergyMission 216256.12066269
scalar OsgEarthNet.uav[23] utilizationEnergyMaintenance 105930.63650894
scalar OsgEarthNet.uav[23] utilizationEnergyCharge 321200.82543945
scalar OsgEarthNet.uav[23] utilizationEnergyOverdrawMission 0
scalar OsgEarthNet.uav[23] utilizationEnergyOverdrawMaintenance 0
scalar OsgEarthNet.uav[23] utilizationCountMissions 75
scalar OsgEarthNet.uav[23] utilizationCountManeuversMission 1367
scalar OsgEarthNet.uav[23] utilizationCountManeuversMaintenance 149
scalar OsgEarthNet.uav[23] utilizationCountChargeState 75
scalar OsgEarthNet.uav[23] utilizationCountOverdrawnAfterMission 0
scalar OsgEarthNet.uav[23] utilizationCountIdleState 1
scalar OsgEarthNet.uav[23] utilizationFail 0
scalar OsgEarthNet.uav[23] simulationTime 259200
scalar OsgEarthNet.uav[24] utilizationSecMission 44269.828877981
scalar OsgEarthNet.uav[24] utilizationSecMaintenance 23168.699895691
scalar OsgEarthNet.uav[24] utilizationSecCharge 191759.47022633
scalar OsgEarthNet.uav[24] utilizationSecIdle 2
scalar OsgEarthNet.uav[24] utilizationEnergyMission 213386.82483673
scalar OsgEarthNet.uav[24] utilizationEnergyMaintenance 106296.19203949
scalar OsgEarthNet.uav[24] utilizationEnergyCharge 320495.58764648
scalar OsgEarthNet.uav[24] utilizationEnergyOverdrawMission 0
scalar OsgEarthNet.uav[24] utilizationEnergyOverdrawMaintenance 0
scalar OsgEarthNet.uav[24] utilizationCountMissions 75
scalar OsgEarthNet.uav[24] utilizationCountManeuversMission 1423
scalar OsgEarthNet.uav[24] utilizationCountManeuversMaintenance 149
scalar OsgEarthNet.uav[24] utilizationCountChargeState 75
scalar OsgEarthNet.uav[24] utilizationCountOverdrawnAfterMission 0
scalar OsgEarthNet.uav[24] utilizationCountIdleState 1
scalar OsgEarthNet.uav[24] utilizationFail 0
scalar OsgEarthNet.uav[24] simulationTime 259200
scalar OsgEarthNet.uav[25] utilizationSecMission 42227.08465151
scalar OsgEarthNet.uav[25] utilizationSecMaintenance 24849.953472965
scalar OsgEarthNet.uav[25] utilizationSecCharge 190736.63549609
scalar OsgEarthNet.uav[25] utilizationSecIdle 1386.3253794327
scalar OsgEarthNet.uav[25] utilizationEnergyMission 202510.06359863
scalar OsgEarthNet.uav[25] utilizationEnergyMaintenance 116118.22291183
scalar OsgEarthNet.uav[25] utilizationEnergyCharge 320067.90966797
scalar OsgEarthNet.uav[25] utilizationEnergyOverdrawMission 0
scalar OsgEarthNet.uav[25] utilizationEnergyOverdrawMaintenance 0
scalar OsgEarthNet.uav[25] utilizationCountMissions 77
scalar OsgEarthNet.uav[25] utilizationCountManeuversMission 1309
scalar OsgEarthNet.uav[25] utilizationCountManeuversMaintenance 154
scalar OsgEarthNet.uav[25] utilizationCountChargeState 77
scalar OsgEarthNet.uav[25] utilizationCountOverdrawnAfterMission 0
scalar OsgEarthNet.uav[25] utilizationCountIdleState 1
scalar OsgEarthNet.uav[25] utilizationFail 0
scalar OsgEarthNet.uav[25] simulationTime 259200
scalar OsgEarthNet.uav[26] utilizationSecMission 41821.413401244
scalar OsgEarthNet.uav[26] utilizationSecMaintenance 24726.886600736
scalar OsgEarthNet.uav[26] utilizationSecCharge 190126.42736292
scalar OsgEarthNet.uav[26] utilizationSecIdle 2525.2716350975
scalar OsgEarthNet.uav[26] utilizationEnergyMission 203242.06326675
scalar OsgEarthNet.uav[26] utilizationEnergyMaintenance 115534.37025452
scalar OsgEarthNet.uav[26] utilizationEnergyCharge 317100.8760376
scalar OsgEarthNet.uav[26] utilizationEnergyOverdrawMission 0
scalar OsgEarthNet.uav[26] utilizationEnergyOverdrawMaintenance 0
scalar OsgEarthNet.uav[26] utilizationCountMissions 76
scalar OsgEarthNet.uav[26] utilizationCountManeuversMission 1429
scalar OsgEarthNet.uav[26] utilizationCountManeuversMaintenance 152
scalar OsgEarthNet.uav[26] utilizationCountChargeState 76
scalar OsgEarthNet.uav[26] utilizationCountOverdrawnAfterMission 0
scalar OsgEarthNet.uav[26] utilizationCountIdleState 1
scalar OsgEarthNet.uav[26] utilizationFail 0
scalar OsgEarthNet.uav[26] simulationTime 259200
scalar OsgEarthNet.uav[27] utilizationSecMission 42864.266899659
scalar OsgEarthNet.uav[27] utilizationSecMaintenance 24077.233248552
scalar OsgEarthNet.uav[27] utilizationSecCharge 190450.14524891
scalar OsgEarthNet.uav[27] utilizationSecIdle 1808.3536028792
scalar OsgEarthNet.uav[27] utilizationEnergyMission 205561.56419754
scalar OsgEarthNet.uav[27] utilizationEnergyMaintenance 112771.71177292
scalar OsgEarthNet.uav[27] utilizationEnergyCharge 318058.02832031
scalar OsgEarthNet.uav[27] utilizationEnergyOverdrawMission 0
scalar OsgEarthNet.uav[27] utilizationEnergyOverdrawMaintenance 0
scalar OsgEarthNet.uav[27] utilizationCountMissions 76
scalar OsgEarthNet.uav[27] utilizationCountManeuversMission 1258
scalar OsgEarthNet.uav[27] utilizationCountManeuversMaintenance 152
scalar OsgEarthNet.uav[27] utilizationCountChargeState 76
scalar OsgEarthNet.uav[27] utilizationCountOverdrawnAfterMission 0
scalar OsgEarthNet.uav[27] utilizationCountIdleState 1
scalar OsgEarthNet.uav[27] utilizationFail 0
scalar OsgEarthNet.uav[27] simulationTime 259200
scalar OsgEarthNet.uav[28] utilizationSecMission 43574.634324922
scalar OsgEarthNet.uav[28] utilizationSecMaintenance 23102.234088314
scalar OsgEarthNet.uav[28] utilizationSecCharge 191051.67762805
scalar OsgEarthNet.uav[28] utilizationSecIdle 1471.4529587171
scalar OsgEarthNet.uav[28] utilizationEnergyMission 215070.43857193
scalar OsgEarthNet.uav[28] utilizationEnergyMaintenance 107687.1164856
scalar OsgEarthNet.uav[28] utilizationEnergyCharge 321263.734375
scalar OsgEarthNet.uav[28] utilizationEnergyOverdrawMission 0
scalar OsgEarthNet.uav[28] utilizationEnergyOverdrawMaintenance 0
scalar OsgEarthNet.uav[28] utilizationCountMissions 75
scalar OsgEarthNet.uav[28] utilizationCountManeuversMission 1453
scalar OsgEarthNet.uav[28] utilizationCountManeuversMaintenance 150
scalar OsgEarthNet.uav[28] utilizationCountChargeState 75
scalar OsgEarthNet.uav[28] utilizationCountOverdrawnAfterMission 0
scalar OsgEarthNet.uav[28] utilizationCountIdleState 1
scalar OsgEarthNet.uav[28] utilizationFail 0
scalar OsgEarthNet.uav[28] simulationTime 259200
scalar OsgEarthNet.uav[29] utilizationSecMission 35670.934356486
scalar OsgEarthNet.uav[29] utilizationSecMaintenance 31513.792008417
scalar OsgEarthNet.uav[29] utilizationSecCharge 189050
scalar OsgEarthNet.uav[29] utilizationSecIdle 2965.2726350975
scalar OsgEarthNet.uav[29] utilizationEnergyMission 179460.57176686
scalar OsgEarthNet.uav[29] utilizationEnergyMaintenance 149253.99339676
scalar OsgEarthNet.uav[29] utilizationEnergyCharge 322483.3671875
scalar OsgEarthNet.uav[29] utilizationEnergyOverdrawMission 0
scalar OsgEarthNet.uav[29] utilizationEnergyOverdrawMaintenance 0
scalar OsgEarthNet.uav[29] utilizationCountMissions 79
scalar OsgEarthNet.uav[29] utilizationCountManeuversMission 1356
scalar OsgEarthNet.uav[29] utilizationCountManeuversMaintenance 159
scalar OsgEarthNet.uav[29] utilizationCountChargeState 79
scalar OsgEarthNet.uav[29] utilizationCountOverdrawnAfterMission 0
scalar OsgEarthNet.uav[29] utilizationCountIdleState 1
scalar OsgEarthNet.uav[29] utilizationFail 0
scalar OsgEarthNet.uav[29] simulationTime 259200
scalar OsgEarthNet.uav[30] utilizationSecMission 41949.383531568
scalar OsgEarthNet.uav[30] utilizationSecMaintenance 24558.428288428
scalar OsgEarthNet.uav[30] utilizationSecCharge 190450.18218
scalar OsgEarthNet.uav[30] utilizationSecIdle 2242.005
scalar OsgEarthNet.uav[30] utilizationEnergyMission 201600.8498497
scalar OsgEarthNet.uav[30] utilizationEnergyMaintenance 115376.29370117
scalar OsgEarthNet.uav[30] utilizationEnergyCharge 311216.54724121
scalar OsgEarthNet.uav[30] utilizationEnergyOverdrawMission 0
scalar OsgEarthNet.uav[30] utilizationEnergyOverdrawMaintenance 0
scalar OsgEarthNet.uav[30] utilizationCountMissions 76
scalar OsgEarthNet.uav[30] utilizationCountManeuversMission 1173
scalar OsgEarthNet.uav[30] utilizationCountManeuversMaintenance 152
scalar OsgEarthNet.uav[30] utilizationCountChargeState 76
scalar OsgEarthNet.uav[30] utilizationCountOverdrawnAfterMission 0
scalar OsgEarthNet.uav[30] utilizationCountIdleState 1
scalar OsgEarthNet.uav[30] utilizationFail 0
scalar OsgEarthNet.uav[30] simulationTime 259200
scalar OsgEarthNet.uav[31] utilizationSecMission 40306.091327067
scalar OsgEarthNet.uav[31] utilizationSecMaintenance 27735.907822408
scalar OsgEarthNet.uav[31] utilizationSecCharge 189150
scalar OsgEarthNet.uav[31] utilizationSecIdle 2007.9998505245
scalar OsgEarthNet.uav[31] utilizationEnergyMission 192381.84832382
scalar OsgEarthNet.uav[31] utilizationEnergyMaintenance 131133.75489739
scalar OsgEarthNet.uav[31] utilizationEnergyCharge 319510.9453125
scalar OsgEarthNet.uav[31] utilizationEnergyOverdrawMission 0
scalar OsgEarthNet.uav[31] utilizationEnergyOverdrawMaintenance 0
scalar OsgEarthNet.uav[31] utilizationCountMissions 80
scalar OsgEarthNet.uav[31] utilizationCountManeuversMission 1229
scalar OsgEarthNet.uav[31] utilizationCountManeuversMaintenance 160
scalar OsgEarthNet.uav[31] utilizationCountChargeState 79
scalar OsgEarthNet.uav[31] utilizationCountOverdrawnAfterMission 0
scalar OsgEarthNet.uav[31] utilizationCountIdleState 1
scalar OsgEarthNet.uav[31] utilizationFail 0
scalar OsgEarthNet.uav[31] simulationTime 259200
scalar OsgEarthNet.uav[32] utilizationSecMission 44754.762540254
scalar OsgEarthNet.uav[32] utilizationSecMaintenance 22586.895137354
scalar OsgEarthNet.uav[32] utilizationSecCharge 191276.34032239
scalar OsgEarthNet.uav[32] utilizationSecIdle 582.001
scalar OsgEarthNet.uav[32] utilizationEnergyMission 219324.19961166
scalar OsgEarthNet.uav[32] utilizationEnergyMaintenance 103990.94182205
scalar OsgEarthNet.uav[32] utilizationEnergyCharge 322251.12109375
scalar OsgEarthNet.uav[32] utilizationEnergyOverdrawMission 0
scalar OsgEarthNet.uav[32] utilizationEnergyOverdrawMaintenance 0
scalar OsgEarthNet.uav[32] utilizationCountMissions 75
scalar OsgEarthNet.uav[32] utilizationCountManeuversMission 1507
scalar OsgEarthNet.uav[32] utilizationCountManeuversMaintenance 150
scalar OsgEarthNet.uav[32] utilizationCountChargeState 75
scalar OsgEarthNet.uav[32] utilizationCountOverdrawnAfterMission 0
scalar OsgEarthNet.uav[32] utilizationCountIdleState 1
scalar OsgEarthNet.uav[32] utilizationFail 0
scalar OsgEarthNet.uav[32] simulationTime 259200
scalar OsgEarthNet.uav[33] utilizationSecMission 44750.366540792
scalar OsgEarthNet.uav[33] utilizationSecMaintenance 22608.336361074
scalar OsgEarthNet.uav[33] utilizationSecCharge 188679.28909813
scalar OsgEarthNet.uav[33] utilizationSecIdle 3162.007
scalar OsgEarthNet.uav[33] utilizationEnergyMission 218271.66040802
scalar OsgEarthNet.uav[33] utilizationEnergyMaintenance 103238.75627899
scalar OsgEarthNet.uav[33] utilizationEnergyCharge 317497.36437988
scalar OsgEarthNet.uav[33] utilizationEnergyOverdrawMission 0
scalar OsgEarthNet.uav[33] utilizationEnergyOverdrawMaintenance 0
scalar OsgEarthNet.uav[33] utilizationCountMissions 75
scalar OsgEarthNet.uav[33] utilizationCountManeuversMission 1446
scalar OsgEarthNet.uav[33] utilizationCountManeuversMaintenance 150
scalar OsgEarthNet.uav[33] utilizationCountChargeState 75
scalar OsgEarthNet.uav[33] utilizationCountOverdrawnAfterMission 0
scalar OsgEarthNet.uav[33] utilizationCountIdleState 1
scalar OsgEarthNet.uav[33] utilizationFail 0
scalar OsgEarthNet.uav[33] simulationTime 259200
scalar OsgEarthNet.uav[34] utilizationSecMission 41463.199631155
scalar OsgEarthNet.uav[34] utilizationSecMaintenance 24822.008351532
scalar OsgEarthNet.uav[34] utilizationSecCharge 192272.79001731
scalar OsgEarthNet.uav[34] utilizationSecIdle 642.001
scalar OsgEarthNet.uav[34] utilizationEnergyMission 199597.79282761
scalar OsgEarthNet.uav[34] utilizationEnergyMaintenance 116541.6894455
scalar OsgEarthNet.uav[34] utilizationEnergyCharge 313736.00634766
scalar OsgEarthNet.uav[34] utilizationEnergyOverdrawMission 0
scalar OsgEarthNet.uav[34] utilizationEnergyOverdrawMaintenance 0
scalar OsgEarthNet.uav[34] utilizationCountMissions 77
scalar OsgEarthNet.uav[34] utilizationCountManeuversMission 1243
scalar OsgEarthNet.uav[34] utilizationCountManeuversMaintenance 154
scalar OsgEarthNet.uav[34] utilizationCountChargeState 77
scalar OsgEarthNet.uav[34] utilizationCountOverdrawnAfterMission 0
scalar OsgEarthNet.uav[34] utilizationCountIdleState 1
scalar OsgEarthNet.uav[34] utilizationFail 0
scalar OsgEarthNet.uav[34] simulationTime 259200
scalar OsgEarthNet.uav[35] utilizationSecMission 40025.702580564
scalar OsgEarthNet.uav[35] utilizationSecMaintenance 25906.469804192
scalar OsgEarthNet.uav[35] utilizationSecCharge 192165.82461524
scalar OsgEarthNet.uav[35] utilizationSecIdle 1102.002
scalar OsgEarthNet.uav[35] utilizationEnergyMission 193667.46247864
scalar OsgEarthNet.uav[35] utilizationEnergyMaintenance 121515.59307098
scalar OsgEarthNet.uav[35] utilizationEnergyCharge 315586.06616211
scalar OsgEarthNet.uav[35] utilizationEnergyOverdrawMission 0
scalar OsgEarthNet.uav[35] utilizationEnergyOverdrawMaintenance 0
scalar OsgEarthNet.uav[35] utilizationCountMissions 77
scalar OsgEarthNet.uav[35] utilizationCountManeuversMission 1271
scalar OsgEarthNet.uav[35] utilizationCountManeuversMaintenance 154
scalar OsgEarthNet.uav[35] utilizationCountChargeState 77
scalar OsgEarthNet.uav[35] utilizationCountOverdrawnAfterMission 0
scalar OsgEarthNet.uav[35] utilizationCountIdleState 1
scalar OsgEarthNet.uav[35] utilizationFail 0
scalar OsgEarthNet.uav[35] simulationTime 259200
scalar OsgEarthNet.uav[36] utilizationSecMission 42848.295547545
scalar OsgEarthNet.uav[36] utilizationSecMaintenance 23885.003322004
scalar OsgEarthNet.uav[36] utilizationSecCharge 189314.91402793
scalar OsgEarthNet.uav[36] utilizationSecIdle 3151.7861025228
scalar OsgEarthNet.uav[36] utilizationEnergyMission 205911.47662735
scalar OsgEarthNet.uav[36] utilizationEnergyMaintenance 111726.35593796
scalar OsgEarthNet.uav[36] utilizationEnergyCharge 314964.79394531
scalar OsgEarthNet.uav[36] utilizationEnergyOverdrawMission 0
scalar OsgEarthNet.uav[36] utilizationEnergyOverdrawMaintenance 0
scalar OsgEarthNet.uav[36] utilizationCountMissions 74
scalar OsgEarthNet.uav[36] utilizationCountManeuversMission 1220
scalar OsgEarthNet.uav[36] utilizationCountManeuversMaintenance 148
scalar OsgEarthNet.uav[36] utilizationCountChargeState 74
scalar OsgEarthNet.uav[36] utilizationCountOverdrawnAfterMission 0
scalar OsgEarthNet.uav[36] utilizationCountIdleState 1
scalar OsgEarthNet.uav[36] utilizationFail 0
scalar OsgEarthNet.uav[36] simulationTime 259200
scalar OsgEarthNet.uav[37] utilizationSecMission 41017.348838506
scalar OsgEarthNet.uav[37] utilizationSecMaintenance 26045.714723892
scalar OsgEarthNet.uav[37] utilizationSecCharge 190635.97145193
scalar OsgEarthNet.uav[37] utilizationSecIdle 1500.9639856735
scalar OsgEarthNet.uav[37] utilizationEnergyMission 198392.4531517
scalar OsgEarthNet.uav[37] utilizationEnergyMaintenance 122237.0293808
scalar OsgEarthNet.uav[37] utilizationEnergyCharge 319536.27075195
scalar OsgEarthNet.uav[37] utilizationEnergyOverdrawMission 0
scalar OsgEarthNet.uav[37] utilizationEnergyOverdrawMaintenance 0
scalar OsgEarthNet.uav[37] utilizationCountMissions 77
scalar OsgEarthNet.uav[37] utilizationCountManeuversMission 1293
scalar OsgEarthNet.uav[37] utilizationCountManeuversMaintenance 154
scalar OsgEarthNet.uav[37] utilizationCountChargeState 77
scalar OsgEarthNet.uav[37] utilizationCountOverdrawnAfterMission 0
scalar OsgEarthNet.uav[37] utilizationCountIdleState 1
scalar OsgEarthNet.uav[37] utilizationFail 0
scalar OsgEarthNet.uav[37] simulationTime 259200
scalar OsgEarthNet.uav[38] utilizationSecMission 42523.681328849
scalar OsgEarthNet.uav[38] utilizationSecMaintenance 23824.247988963
scalar OsgEarthNet.uav[38] utilizationSecCharge 191100.39663281
scalar OsgEarthNet.uav[38] utilizationSecIdle 1751.673049383
scalar OsgEarthNet.uav[38] utilizationEnergyMission 205338.99210739
scalar OsgEarthNet.uav[38] utilizationEnergyMaintenance 111516.25407028
scalar OsgEarthNet.uav[38] utilizationEnergyCharge 313566.37207031
scalar OsgEarthNet.uav[38] utilizationEnergyOverdrawMission 0
scalar OsgEarthNet.uav[38] utilizationEnergyOverdrawMaintenance 0
scalar OsgEarthNet.uav[38] utilizationCountMissions 76
scalar OsgEarthNet.uav[38] utilizationCountManeuversMission 1315
scalar OsgEarthNet.uav[38] utilizationCountManeuversMaintenance 152
scalar OsgEarthNet.uav[38] utilizationCountChargeState 76
scalar OsgEarthNet.uav[38] utilizationCountOverdrawnAfterMission 0
scalar OsgEarthNet.uav[38] utilizationCountIdleState 1
scalar OsgEarthNet.uav[38] utilizationFail 0
scalar OsgEarthNet.uav[38] simulationTime 259200
scalar OsgEarthNet.uav[39] utilizationSecMission 38812.646756645
scalar OsgEarthNet.uav[39] utilizationSecMaintenance 28131.245696373
scalar OsgEarthNet.uav[39] utilizationSecCharge 189532.14850745
scalar OsgEarthNet.uav[39] utilizationSecIdle 2723.9580395329
scalar OsgEarthNet.uav[39] utilizationEnergyMission 187504.77025604
scalar OsgEarthNet.uav[39] utilizationEnergyMaintenance 134128.81498337
scalar OsgEarthNet.uav[39] utilizationEnergyCharge 319929.9407959
scalar OsgEarthNet.uav[39] utilizationEnergyOverdrawMission 0
scalar OsgEarthNet.uav[39] utilizationEnergyOverdrawMaintenance 0
scalar OsgEarthNet.uav[39] utilizationCountMissions 78
scalar OsgEarthNet.uav[39] utilizationCountManeuversMission 1188
scalar OsgEarthNet.uav[39] utilizationCountManeuversMaintenance 156
scalar OsgEarthNet.uav[39] utilizationCountChargeState 78
scalar OsgEarthNet.uav[39] utilizationCountOverdrawnAfterMission 0
scalar OsgEarthNet.uav[39] utilizationCountIdleState 1
scalar OsgEarthNet.uav[39] utilizationFail 0
scalar OsgEarthNet.uav[39] simulationTime 259200
scalar OsgEarthNet.uav[40] utilizationSecMission 39895.378091228
scalar OsgEarthNet.uav[40] utilizationSecMaintenance 27159.372437825
scalar OsgEarthNet.uav[40] utilizationSecCharge 192143.24847095
scalar OsgEarthNet.uav[40] utilizationSecIdle 2
scalar OsgEarthNet.uav[40] utilizationEnergyMission 193105.3235321
scalar OsgEarthNet.uav[40] utilizationEnergyMaintenance 128161.87268829
scalar OsgEarthNet.uav[40] utilizationEnergyCharge 321279.05932617
scalar OsgEarthNet.uav[40] utilizationEnergyOverdrawMission 0
scalar OsgEarthNet.uav[40] utilizationEnergyOverdrawMaintenance 0
scalar OsgEarthNet.uav[40] utilizationCountMissions 78
scalar OsgEarthNet.uav[40] utilizationCountManeuversMission 1251
scalar OsgEarthNet.uav[40] utilizationCountManeuversMaintenance 156
scalar OsgEarthNet.uav[40] utilizationCountChargeState 78
scalar OsgEarthNet.uav[40] utilizationCountOverdrawnAfterMission 0
scalar OsgEarthNet.uav[40] utilizationCountIdleState 1
scalar OsgEarthNet.uav[40] utilizationFail 0
scalar OsgEarthNet.uav[40] simulationTime 259200
scalar OsgEarthNet.uav[41] utilizationSecMission 41774.520154343
scalar OsgEarthNet.uav[41] utilizationSecMaintenance 24665.810246514
scalar OsgEarthNet.uav[41] utilizationSecCharge 190229.86838054
scalar OsgEarthNet.uav[41] utilizationSecIdle 2529.8002186065
scalar OsgEarthNet.uav[41] utilizationEnergyMission 203352.59421921
scalar OsgEarthNet.uav[41] utilizationEnergyMaintenance 115371.80699158
scalar OsgEarthNet.uav[41] utilizationEnergyCharge 314158.09893799
scalar OsgEarthNet.uav[41] utilizationEnergyOverdrawMission 0
scalar OsgEarthNet.uav[41] utilizationEnergyOverdrawMaintenance 0
scalar OsgEarthNet.uav[41] utilizationCountMissions 77
scalar OsgEarthNet.uav[41] utilizationCountManeuversMission 1350
scalar OsgEarthNet.uav[41] utilizationCountManeuversMaintenance 154
scalar OsgEarthNet.uav[41] utilizationCountChargeState 77
scalar OsgEarthNet.uav[41] utilizationCountOverdrawnAfterMission 0
scalar OsgEarthNet.uav[41] utilizationCountIdleState 1
scalar OsgEarthNet.uav[41] utilizationFail 0
scalar OsgEarthNet.uav[41] simulationTime 259200
scalar OsgEarthNet.uav[42] utilizationSecMission 42920.974276442
scalar OsgEarthNet.uav[42] utilizationSecMaintenance 24526.988449503
scalar OsgEarthNet.uav[42] utilizationSecCharge 191750.03627406
scalar OsgEarthNet.uav[42] utilizationSecIdle 2
scalar OsgEarthNet.uav[42] utilizationEnergyMission 209829.37047525
scalar OsgEarthNet.uav[42] utilizationEnergyMaintenance 113242.34287643
scalar OsgEarthNet.uav[42] utilizationEnergyCharge 318032.84008789
scalar OsgEarthNet.uav[42] utilizationEnergyOverdrawMission 0
scalar OsgEarthNet.uav[42] utilizationEnergyOverdrawMaintenance 0
scalar OsgEarthNet.uav[42] utilizationCountMissions 77
scalar OsgEarthNet.uav[42] utilizationCountManeuversMission 1382
scalar OsgEarthNet.uav[42] utilizationCountManeuversMaintenance 153
scalar OsgEarthNet.uav[42] utilizationCountChargeState 77
scalar OsgEarthNet.uav[42] utilizationCountOverdrawnAfterMission 0
scalar OsgEarthNet.uav[42] utilizationCountIdleState 1
scalar OsgEarthNet.uav[42] utilizationFail 0
scalar OsgEarthNet.uav[42] simulationTime 259200
scalar OsgEarthNet.uav[43] utilizationSecMission 43152.61510166
scalar OsgEarthNet.uav[43] utilizationSecMaintenance 23275.91767064
scalar OsgEarthNet.uav[43] utilizationSecCharge 190162.88657083
scalar OsgEarthNet.uav[43] utilizationSecIdle 2608.5796568717
scalar OsgEarthNet.uav[43] utilizationEnergyMission 209773.38225937
scalar OsgEarthNet.uav[43] utilizationEnergyMaintenance 109707.27825546
scalar OsgEarthNet.uav[43] utilizationEnergyCharge 316914.8059082
scalar OsgEarthNet.uav[43] utilizationEnergyOverdrawMission 0
scalar OsgEarthNet.uav[43] utilizationEnergyOverdrawMaintenance 0
scalar OsgEarthNet.uav[43] utilizationCountMissions 74
scalar OsgEarthNet.uav[43] utilizationCountManeuversMission 1324
scalar OsgEarthNet.uav[43] utilizationCountManeuversMaintenance 148
scalar OsgEarthNet.uav[43] utilizationCountChargeState 74
scalar OsgEarthNet.uav[43] utilizationCountOverdrawnAfterMission 0
scalar OsgEarthNet.uav[43] utilizationCountIdleState 1
scalar OsgEarthNet.uav[43] utilizationFail 0
scalar OsgEarthNet.uav[43] simulationTime 259200
scalar OsgEarthNet.uav[44] utilizationSecMission 42125.988637955
scalar OsgEarthNet.uav[44] utilizationSecMaintenance 24292.955330288
scalar OsgEarthNet.uav[44] utilizationSecCharge 191619.05303176
scalar OsgEarthNet.uav[44] utilizationSecIdle 1162.002
scalar OsgEarthNet.uav[44] utilizationEnergyMission 205961.40510178
scalar OsgEarthNet.uav[44] utilizationEnergyMaintenance 112839.46922302
scalar OsgEarthNet.uav[44] utilizationEnergyCharge 319250.59887695
scalar OsgEarthNet.uav[44] utilizationEnergyOverdrawMission 0
scalar OsgEarthNet.uav[44] utilizationEnergyOverdrawMaintenance 0
scalar OsgEarthNet.uav[44] utilizationCountMissions 76
scalar OsgEarthNet.uav[44] utilizationCountManeuversMission 1422
scalar OsgEarthNet.uav[44] utilizationCountManeuversMaintenance 152
scalar OsgEarthNet.uav[44] utilizationCountChargeState 76
scalar OsgEarthNet.uav[44] utilizationCountOverdrawnAfterMission 0
scalar OsgEarthNet.uav[44] utilizationCountIdleState 1
scalar OsgEarthNet.uav[44] utilizationFail 0
scalar OsgEarthNet.uav[44] simulationTime 259200
scalar OsgEarthNet.uav[45] utilizationSecMission 44608.981276733
scalar OsgEarthNet.uav[45] utilizationSecMaintenance 22179.014723267
scalar OsgEarthNet.uav[45] utilizationSecCharge 190750
scalar OsgEarthNet.uav[45] utilizationSecIdle 1662.003
scalar OsgEarthNet.uav[45] utilizationEnergyMission 218517.05026358
scalar OsgEarthNet.uav[45] utilizationEnergyMaintenance 103712.82423782
scalar OsgEarthNet.uav[45] utilizationEnergyCharge 317633.69970703
scalar OsgEarthNet.uav[45] utilizationEnergyOverdrawMission 0
scalar OsgEarthNet.uav[45] utilizationEnergyOverdrawMaintenance 0
scalar OsgEarthNet.uav[45] utilizationCountMissions 74
scalar OsgEarthNet.uav[45] utilizationCountManeuversMission 1405
scalar OsgEarthNet.uav[45] utilizationCountManeuversMaintenance 149
scalar OsgEarthNet.uav[45] utilizationCountChargeState 74
scalar OsgEarthNet.uav[45] utilizationCountOverdrawnAfterMission 0
scalar OsgEarthNet.uav[45] utilizationCountIdleState 1
scalar OsgEarthNet.uav[45] utilizationFail 0
scalar OsgEarthNet.uav[45] simulationTime 259200
scalar OsgEarthNet.uav[46] utilizationSecMission 41429.355519596
scalar OsgEarthNet.uav[46] utilizationSecMaintenance 26344.761949996
scalar OsgEarthNet.uav[46] utilizationSecCharge 191003.88053041
scalar OsgEarthNet.uav[46] utilizationSecIdle 422.001
scalar OsgEarthNet.uav[46] utilizationEnergyMission 201720.13676453
scalar OsgEarthNet.uav[46] utilizationEnergyMaintenance 123152.65915298
scalar OsgEarthNet.uav[46] utilizationEnergyCharge 319894.7857666
scalar OsgEarthNet.uav[46] utilizationEnergyOverdrawMission 0
scalar OsgEarthNet.uav[46] utilizationEnergyOverdrawMaintenance 0
scalar OsgEarthNet.uav[46] utilizationCountMissions 79
scalar OsgEarthNet.uav[46] utilizationCountManeuversMission 1361
scalar OsgEarthNet.uav[46] utilizationCountManeuversMaintenance 158
scalar OsgEarthNet.uav[46] utilizationCountChargeState 79
scalar OsgEarthNet.uav[46] utilizationCountOverdrawnAfterMission 0
scalar OsgEarthNet.uav[46] utilizationCountIdleState 1
scalar OsgEarthNet.uav[46] utilizationFail 0
scalar OsgEarthNet.uav[46] simulationTime 259200
scalar OsgEarthNet.uav[47] utilizationSecMission 37374.056239549
scalar OsgEarthNet.uav[47] utilizationSecMaintenance 29230.50067176
scalar OsgEarthNet.uav[47] utilizationSecCharge 190290
scalar OsgEarthNet.uav[47] utilizationSecIdle 2305.4420886909
scalar OsgEarthNet.uav[47] utilizationEnergyMission 183330.52386856
scalar OsgEarthNet.uav[47] utilizationEnergyMaintenance 138377.79300483
scalar OsgEarthNet.uav[47] utilizationEnergyCharge 317599.2746582
scalar OsgEarthNet.uav[47] utilizationEnergyOverdrawMission 0
scalar OsgEarthNet.uav[47] utilizationEnergyOverdrawMaintenance 0
scalar OsgEarthNet.uav[47] utilizationCountMissions 78
scalar OsgEarthNet.uav[47] utilizationCountManeuversMission 1382
scalar OsgEarthNet.uav[47] utilizationCountManeuversMaintenance 156
scalar OsgEarthNet.uav[47] utilizationCountChargeState 77
scalar OsgEarthNet.uav[47] utilizationCountOverdrawnAfterMission 0
scalar OsgEarthNet.uav[47] utilizationCountIdleState 1
scalar OsgEarthNet.uav[47] utilizationFail 0
scalar OsgEarthNet.uav[47] simulationTime 259200
scalar OsgEarthNet.uav[48] utilizationSecMission 41967.775979016
scalar OsgEarthNet.uav[48] utilizationSecMaintenance 25614.700549972
scalar OsgEarthNet.uav[48] utilizationSecCharge 191615.52247101
scalar OsgEarthNet.uav[48] utilizationSecIdle 2
scalar OsgEarthNet.uav[48] utilizationEnergyMission 204530.53588104
scalar OsgEarthNet.uav[48] utilizationEnergyMaintenance 119097.62149429
scalar OsgEarthNet.uav[48] utilizationEnergyCharge 321981.89526367
scalar OsgEarthNet.uav[48] utilizationEnergyOverdrawMission 0
scalar OsgEarthNet.uav[48] utilizationEnergyOverdrawMaintenance 0
scalar OsgEarthNet.uav[48] utilizationCountMissions 77
scalar OsgEarthNet.uav[48] utilizationCountManeuversMission 1411
scalar OsgEarthNet.uav[48] utilizationCountManeuversMaintenance 154
scalar OsgEarthNet.uav[48] utilizationCountChargeState 77
scalar OsgEarthNet.uav[48] utilizationCountOverdrawnAfterMission 0
scalar OsgEarthNet.uav[48] utilizationCountIdleState 1
scalar OsgEarthNet.uav[48] utilizationFail 0
scalar OsgEarthNet.uav[48] simulationTime 259200
scalar OsgEarthNet.uav[49] utilizationSecMission 42840.49512991
scalar OsgEarthNet.uav[49] utilizationSecMaintenance 24618.639383052
scalar OsgEarthNet.uav[49] utilizationSecCharge 189978.86048704
scalar OsgEarthNet.uav[49] utilizationSecIdle 1762.004
scalar OsgEarthNet.uav[49] utilizationEnergyMission 205719.47623062
scalar OsgEarthNet.uav[49] utilizationEnergyMaintenance 114852.96242905
scalar OsgEarthNet.uav[49] utilizationEnergyCharge 318118.67767334
scalar OsgEarthNet.uav[49] utilizationEnergyOverdrawMission 0
scalar OsgEarthNet.uav[49] utilizationEnergyOverdrawMaintenance 0
scalar OsgEarthNet.uav[49] utilizationCountMissions 77
scalar OsgEarthNet.uav[49] utilizationCountManeuversMission 1233
scalar OsgEarthNet.uav[49] utilizationCountManeuversMaintenance 154
scalar OsgEarthNet.uav[49] utilizationCountChargeState 77
scalar OsgEarthNet.uav[49] utilizationCountOverdrawnAfterMission 0
scalar OsgEarthNet.uav[49] utilizationCountIdleState 1
scalar OsgEarthNet.uav[49] utilizationFail 0
scalar OsgEarthNet.uav[49] simulationTime 259200
scalar OsgEarthNet.uav[50] utilizationSecMission 41734.854482221
scalar OsgEarthNet.uav[50] utilizationSecMaintenance 25383.138517779
scalar OsgEarthNet.uav[50] utilizationSecCharge 189380
scalar OsgEarthNet.uav[50] utilizationSecIdle 2702.006
scalar OsgEarthNet.uav[50] utilizationEnergyMission 201909.97517395
scalar OsgEarthNet.uav[50] utilizationEnergyMaintenance 119474.53688555
scalar OsgEarthNet.uav[50] utilizationEnergyCharge 317304.40112305
scalar OsgEarthNet.uav[50] utilizationEnergyOverdrawMission 0
scalar OsgEarthNet.uav[50] utilizationEnergyOverdrawMaintenance 0
scalar OsgEarthNet.uav[50] utilizationCountMissions 76
scalar OsgEarthNet.uav[50] utilizationCountManeuversMission 1352
scalar OsgEarthNet.uav[50] utilizationCountManeuversMaintenance 152
scalar OsgEarthNet.uav[50] utilizationCountChargeState 75
scalar OsgEarthNet.uav[50] utilizationCountOverdrawnAfterMission 0
scalar OsgEarthNet.uav[50] utilizationCountIdleState 1
scalar OsgEarthNet.uav[50] utilizationFail 0
scalar OsgEarthNet.uav[50] simulationTime 259200
scalar OsgEarthNet.uav[51] utilizationSecMission 39967.445163231
scalar OsgEarthNet.uav[51] utilizationSecMaintenance 27748.374048803
scalar OsgEarthNet.uav[51] utilizationSecCharge 191482.17978797
scalar OsgEarthNet.uav[51] utilizationSecIdle 2
scalar OsgEarthNet.uav[51] utilizationEnergyMission 194636.6961174
scalar OsgEarthNet.uav[51] utilizationEnergyMaintenance 130755.38373947
scalar OsgEarthNet.uav[51] utilizationEnergyCharge 321869.69726562
scalar OsgEarthNet.uav[51] utilizationEnergyOverdrawMission 0
scalar OsgEarthNet.uav[51] utilizationEnergyOverdrawMaintenance 0
scalar OsgEarthNet.uav[51] utilizationCountMissions 77
scalar OsgEarthNet.uav[51] utilizationCountManeuversMission 1339
scalar OsgEarthNet.uav[51] utilizationCountManeuversMaintenance 154
scalar OsgEarthNet.uav[51] utilizationCountChargeState 77
scalar OsgEarthNet.uav[51] utilizationCountOverdrawnAfterMission 0
scalar OsgEarthNet.uav[51] utilizationCountIdleState 1
scalar OsgEarthNet.uav[51] utilizationFail 0
scalar OsgEarthNet.uav[51] simulationTime 259200
scalar OsgEarthNet.uav[52] utilizationSecMission 46938.169123976
scalar OsgEarthNet.uav[52] utilizationSecMaintenance 19895.503496591
scalar OsgEarthNet.uav[52] utilizationSecCharge 190320
scalar OsgEarthNet.uav[52] utilizationSecIdle 2046.3263794327
scalar OsgEarthNet.uav[52] utilizationEnergyMission 224893.04362648
scalar OsgEarthNet.uav[52] utilizationEnergyMaintenance 91379.420009613
scalar OsgEarthNet.uav[52] utilizationEnergyCharge 315286.20581055
scalar OsgEarthNet.uav[52] utilizationEnergyOverdrawMission 0
scalar OsgEarthNet.uav[52] utilizationEnergyOverdrawMaintenance 0
scalar OsgEarthNet.uav[52] utilizationCountMissions 72
scalar OsgEarthNet.uav[52] utilizationCountManeuversMission 1417
scalar OsgEarthNet.uav[52] utilizationCountManeuversMaintenance 145
scalar OsgEarthNet.uav[52] utilizationCountChargeState 72
scalar OsgEarthNet.uav[52] utilizationCountOverdrawnAfterMission 0
scalar OsgEarthNet.uav[52] utilizationCountIdleState 1
scalar OsgEarthNet.uav[52] utilizationFail 0
scalar OsgEarthNet.uav[52] simulationTime 259200
scalar OsgEarthNet.uav[53] utilizationSecMission 42714.129598136
scalar OsgEarthNet.uav[53] utilizationSecMaintenance 24362.47728433
scalar OsgEarthNet.uav[53] utilizationSecCharge 188910
scalar OsgEarthNet.uav[53] utilizationSecIdle 3213.3921175336
scalar OsgEarthNet.uav[53] utilizationEnergyMission 205554.39670139
scalar OsgEarthNet.uav[53] utilizationEnergyMaintenance 112883.56843567
scalar OsgEarthNet.uav[53] utilizationEnergyCharge 316668.82861328
scalar OsgEarthNet.uav[53] utilizationEnergyOverdrawMission 0
scalar OsgEarthNet.uav[53] utilizationEnergyOverdrawMaintenance 0
scalar OsgEarthNet.uav[53] utilizationCountMissions 75
scalar OsgEarthNet.uav[53] utilizationCountManeuversMission 1329
scalar OsgEarthNet.uav[53] utilizationCountManeuversMaintenance 151
scalar OsgEarthNet.uav[53] utilizationCountChargeState 75
scalar OsgEarthNet.uav[53] utilizationCountOverdrawnAfterMission 0
scalar OsgEarthNet.uav[53] utilizationCountIdleState 1
scalar OsgEarthNet.uav[53] utilizationFail 0
scalar OsgEarthNet.uav[53] simulationTime 259200
scalar OsgEarthNet.uav[54] utilizationSecMission 39107.234978759
scalar OsgEarthNet.uav[54] utilizationSecMaintenance 26400.762514519
scalar OsgEarthNet.uav[54] utilizationSecCharge 192800
scalar OsgEarthNet.uav[54] utilizationSecIdle 892.00150672213
scalar OsgEarthNet.uav[54] utilizationEnergyMission 192099.53956985
scalar OsgEarthNet.uav[54] utilizationEnergyMaintenance 124284.24067723
scalar OsgEarthNet.uav[54] utilizationEnergyCharge 316244.46142578
scalar OsgEarthNet.uav[54] utilizationEnergyOverdrawMission 0
scalar OsgEarthNet.uav[54] utilizationEnergyOverdrawMaintenance 0
scalar OsgEarthNet.uav[54] utilizationCountMissions 78
scalar OsgEarthNet.uav[54] utilizationCountManeuversMission 1299
scalar OsgEarthNet.uav[54] utilizationCountManeuversMaintenance 157
scalar OsgEarthNet.uav[54] utilizationCountChargeState 78
scalar OsgEarthNet.uav[54] utilizationCountOverdrawnAfterMission 0
scalar OsgEarthNet.uav[54] utilizationCountIdleState 1
scalar OsgEarthNet.uav[54] utilizationFail 0
scalar OsgEarthNet.uav[54] simulationTime 259200
scalar OsgEarthNet.cs[0] usedPower 4631822.2986205
scalar OsgEarthNet.cs[0] chargedPower 4631822.2986205
scalar OsgEarthNet.cs[0] chargedMobileNodes 0
scalar OsgEarthNet.cs[0] reservations 1114
scalar OsgEarthNet.cs[1] usedPower 4821055.8717403
scalar OsgEarthNet.cs[1] chargedPower 4821055.8717403
scalar OsgEarthNet.cs[1] chargedMobileNodes 0
scalar OsgEarthNet.cs[1] reservations 1212
scalar OsgEarthNet.cs[2] usedPower 8021745.529134
scalar OsgEarthNet.cs[2] chargedPower 8021745.529134
scalar OsgEarthNet.cs[2] chargedMobileNodes 0
scalar OsgEarthNet.cs[2] reservations 1864

