version 2
run Szenario_Hotel_Gabelbach-144-20180712-02:55:09-16868
attr configname Szenario_Hotel_Gabelbach
attr datetime 20180712-02:55:09
attr experiment Szenario_Hotel_Gabelbach
attr inifile omnetpp.ini
attr iterationvars "$replM=2, $biWeight=0.35, $replSearchM=1, $numUAVs=70"
attr iterationvarsf replM=2,biWeight=0.35,replSearchM=1,numUAVs=70-
attr measurement "$replM=2, $biWeight=0.35, $replSearchM=1, $numUAVs=70"
attr network OsgEarthNet
attr processid 16868
attr repetition 0
attr replication #0
attr resultdir results
attr runnumber 144
attr seedset 144
itervar biWeight 0.35
itervar numUAVs 70
itervar replM 2
itervar replSearchM 1
param *.osgEarthScene.scene "\"Szenario_Hotel_Gabelbach.earth\""
param *.playgroundLatitude 50.6830269
param *.playgroundLongitude 10.8538055
param *.playgroundWidth 3500m
param *.playgroundHeight 3500m
param *.cs[0].posX 3537m
param *.cs[0].posY 965m
param *.cs[0].posZ 538m
param *.cs[1].posX 312m
param *.cs[1].posY 1262m
param *.cs[1].posZ 539m
param *.cs[2].posX 2185m
param *.cs[2].posY 3026m
param *.cs[2].posZ 777m
param *.cs[3].posX 10m
param *.cs[3].posY 2200m
param *.cs[3].posZ 560m
param *.cs[4].posX 750m
param *.cs[4].posY 200m
param *.cs[4].posZ 540m
param *.cs[5].posX 2450m
param *.cs[5].posY 180m
param *.cs[5].posZ 524m
param *.cs[6].posX 3140m
param *.cs[6].posY 1790m
param *.cs[6].posZ 606m
param *.numCSs 3
param *.uav[*].replacementMethod 2
param *.uav[*].weightedSumWeight 0.35
param *.missionControl.replacementSearchMethod 1
param *.numUAVs 70
param *.numCSs 3
param *.numUAVs 100
param *.*.timeStep 10s
param *.uav[*].commandPreviewCommandCount 20
param *.missionControl.missionFiles "\"missions\\\\Szenario_WB_Hotel_Gabelbach_Mission_Hotel.waypoints,missions\\\\Szenario_WB_Hotel_Gabelbach_Mission_Kickelhahn.waypoints,missions\\\\Szenario_WB_Hotel_Gabelbach_Mission_Ilmenau_Sportplatz.waypoints,missions\\\\Szenario_WB_Hotel_Gabelbach_Mission_Manebach_Mitte.waypoints,missions\\\\Szenario_WB_Hotel_Gabelbach_Mission_Manebach_Sued.waypoints,missions\\\\Szenario_WB_Hotel_Gabelbach_Hover_HoheSchlaufe.waypoints,missions\\\\Szenario_WB_Hotel_Gabelbach_Hover_Kickelhahn.waypoints,missions\\\\Szenario_WB_Hotel_Gabelbach_Hover_Gabelbachskopf.waypoints,missions\\\\Szenario_WB_Hotel_Gabelbach_Hover_Dachskopf.waypoints\""
param *.uav[0].startX 3537m
param *.uav[0].startY 965m
param *.uav[0].startZ 539m
param *.uav[1].startX 312m
param *.uav[1].startY 1262m
param *.uav[1].startZ 540m
param *.uav[2].startX 2185m
param *.uav[2].startY 3026m
param *.uav[2].startZ 778m
param *.uav[3].startX 3537m
param *.uav[3].startY 965m
param *.uav[3].startZ 539m
param *.uav[4].startX 312m
param *.uav[4].startY 1262m
param *.uav[4].startZ 540m
param *.uav[5].startX 2185m
param *.uav[5].startY 3026m
param *.uav[5].startZ 778m
param *.uav[6].startX 3537m
param *.uav[6].startY 965m
param *.uav[6].startZ 539m
param *.uav[7].startX 312m
param *.uav[7].startY 1262m
param *.uav[7].startZ 540m
param *.uav[8].startX 2185m
param *.uav[8].startY 3026m
param *.uav[8].startZ 778m
param *.uav[9].startX 3537m
param *.uav[9].startY 965m
param *.uav[9].startZ 539m
param *.uav[10].startX 3537m
param *.uav[10].startY 965m
param *.uav[10].startZ 539m
param *.uav[11].startX 312m
param *.uav[11].startY 1262m
param *.uav[11].startZ 540m
param *.uav[12].startX 2185m
param *.uav[12].startY 3026m
param *.uav[12].startZ 778m
param *.uav[13].startX 3537m
param *.uav[13].startY 965m
param *.uav[13].startZ 539m
param *.uav[14].startX 312m
param *.uav[14].startY 1262m
param *.uav[14].startZ 540m
param *.uav[15].startX 2185m
param *.uav[15].startY 3026m
param *.uav[15].startZ 778m
param *.uav[16].startX 3537m
param *.uav[16].startY 965m
param *.uav[16].startZ 539m
param *.uav[17].startX 312m
param *.uav[17].startY 1262m
param *.uav[17].startZ 540m
param *.uav[18].startX 2185m
param *.uav[18].startY 3026m
param *.uav[18].startZ 778m
param *.uav[19].startX 3537m
param *.uav[19].startY 965m
param *.uav[19].startZ 539m
param *.uav[20].startX 3537m
param *.uav[20].startY 965m
param *.uav[20].startZ 539m
param *.uav[21].startX 312m
param *.uav[21].startY 1262m
param *.uav[21].startZ 540m
param *.uav[22].startX 2185m
param *.uav[22].startY 3026m
param *.uav[22].startZ 778m
param *.uav[23].startX 3537m
param *.uav[23].startY 965m
param *.uav[23].startZ 539m
param *.uav[24].startX 312m
param *.uav[24].startY 1262m
param *.uav[24].startZ 540m
param *.uav[25].startX 2185m
param *.uav[25].startY 3026m
param *.uav[25].startZ 778m
param *.uav[26].startX 3537m
param *.uav[26].startY 965m
param *.uav[26].startZ 539m
param *.uav[27].startX 312m
param *.uav[27].startY 1262m
param *.uav[27].startZ 540m
param *.uav[28].startX 2185m
param *.uav[28].startY 3026m
param *.uav[28].startZ 778m
param *.uav[29].startX 3537m
param *.uav[29].startY 965m
param *.uav[29].startZ 539m
param *.uav[30].startX 3537m
param *.uav[30].startY 965m
param *.uav[30].startZ 539m
param *.uav[31].startX 312m
param *.uav[31].startY 1262m
param *.uav[31].startZ 540m
param *.uav[32].startX 2185m
param *.uav[32].startY 3026m
param *.uav[32].startZ 778m
param *.uav[33].startX 3537m
param *.uav[33].startY 965m
param *.uav[33].startZ 539m
param *.uav[34].startX 312m
param *.uav[34].startY 1262m
param *.uav[34].startZ 540m
param *.uav[35].startX 2185m
param *.uav[35].startY 3026m
param *.uav[35].startZ 778m
param *.uav[36].startX 3537m
param *.uav[36].startY 965m
param *.uav[36].startZ 539m
param *.uav[37].startX 312m
param *.uav[37].startY 1262m
param *.uav[37].startZ 540m
param *.uav[38].startX 2185m
param *.uav[38].startY 3026m
param *.uav[38].startZ 778m
param *.uav[39].startX 3537m
param *.uav[39].startY 965m
param *.uav[39].startZ 539m
param *.uav[40].startX 3537m
param *.uav[40].startY 965m
param *.uav[40].startZ 539m
param *.uav[41].startX 312m
param *.uav[41].startY 1262m
param *.uav[41].startZ 540m
param *.uav[42].startX 2185m
param *.uav[42].startY 3026m
param *.uav[42].startZ 778m
param *.uav[43].startX 3537m
param *.uav[43].startY 965m
param *.uav[43].startZ 539m
param *.uav[44].startX 312m
param *.uav[44].startY 1262m
param *.uav[44].startZ 540m
param *.uav[45].startX 2185m
param *.uav[45].startY 3026m
param *.uav[45].startZ 778m
param *.uav[46].startX 3537m
param *.uav[46].startY 965m
param *.uav[46].startZ 539m
param *.uav[47].startX 312m
param *.uav[47].startY 1262m
param *.uav[47].startZ 540m
param *.uav[48].startX 2185m
param *.uav[48].startY 3026m
param *.uav[48].startZ 778m
param *.uav[49].startX 3537m
param *.uav[49].startY 965m
param *.uav[49].startZ 539m
param *.uav[50].startX 3537m
param *.uav[50].startY 965m
param *.uav[50].startZ 539m
param *.uav[51].startX 312m
param *.uav[51].startY 1262m
param *.uav[51].startZ 540m
param *.uav[52].startX 2185m
param *.uav[52].startY 3026m
param *.uav[52].startZ 778m
param *.uav[53].startX 3537m
param *.uav[53].startY 965m
param *.uav[53].startZ 539m
param *.uav[54].startX 312m
param *.uav[54].startY 1262m
param *.uav[54].startZ 540m
param *.uav[55].startX 2185m
param *.uav[55].startY 3026m
param *.uav[55].startZ 778m
param *.uav[56].startX 3537m
param *.uav[56].startY 965m
param *.uav[56].startZ 539m
param *.uav[57].startX 312m
param *.uav[57].startY 1262m
param *.uav[57].startZ 540m
param *.uav[58].startX 2185m
param *.uav[58].startY 3026m
param *.uav[58].startZ 778m
param *.uav[59].startX 3537m
param *.uav[59].startY 965m
param *.uav[59].startZ 539m
param *.uav[60].startX 3537m
param *.uav[60].startY 965m
param *.uav[60].startZ 539m
param *.uav[61].startX 312m
param *.uav[61].startY 1262m
param *.uav[61].startZ 540m
param *.uav[62].startX 2185m
param *.uav[62].startY 3026m
param *.uav[62].startZ 778m
param *.uav[63].startX 3537m
param *.uav[63].startY 965m
param *.uav[63].startZ 539m
param *.uav[64].startX 312m
param *.uav[64].startY 1262m
param *.uav[64].startZ 540m
param *.uav[65].startX 2185m
param *.uav[65].startY 3026m
param *.uav[65].startZ 778m
param *.uav[66].startX 3537m
param *.uav[66].startY 965m
param *.uav[66].startZ 539m
param *.uav[67].startX 312m
param *.uav[67].startY 1262m
param *.uav[67].startZ 540m
param *.uav[68].startX 2185m
param *.uav[68].startY 3026m
param *.uav[68].startZ 778m
param *.uav[69].startX 3537m
param *.uav[69].startY 965m
param *.uav[69].startZ 539m
param *.uav[70].startX 3537m
param *.uav[70].startY 965m
param *.uav[70].startZ 539m
param *.uav[71].startX 312m
param *.uav[71].startY 1262m
param *.uav[71].startZ 540m
param *.uav[72].startX 2185m
param *.uav[72].startY 3026m
param *.uav[72].startZ 778m
param *.uav[73].startX 3537m
param *.uav[73].startY 965m
param *.uav[73].startZ 539m
param *.uav[74].startX 312m
param *.uav[74].startY 1262m
param *.uav[74].startZ 540m
param *.uav[75].startX 2185m
param *.uav[75].startY 3026m
param *.uav[75].startZ 778m
param *.uav[76].startX 3537m
param *.uav[76].startY 965m
param *.uav[76].startZ 539m
param *.uav[77].startX 312m
param *.uav[77].startY 1262m
param *.uav[77].startZ 540m
param *.uav[78].startX 2185m
param *.uav[78].startY 3026m
param *.uav[78].startZ 778m
param *.uav[79].startX 3537m
param *.uav[79].startY 965m
param *.uav[79].startZ 539m
param *.uav[80].startX 3537m
param *.uav[80].startY 965m
param *.uav[80].startZ 539m
param *.uav[81].startX 312m
param *.uav[81].startY 1262m
param *.uav[81].startZ 540m
param *.uav[82].startX 2185m
param *.uav[82].startY 3026m
param *.uav[82].startZ 778m
param *.uav[83].startX 3537m
param *.uav[83].startY 965m
param *.uav[83].startZ 539m
param *.uav[84].startX 312m
param *.uav[84].startY 1262m
param *.uav[84].startZ 540m
param *.uav[85].startX 2185m
param *.uav[85].startY 3026m
param *.uav[85].startZ 778m
param *.uav[86].startX 3537m
param *.uav[86].startY 965m
param *.uav[86].startZ 539m
param *.uav[87].startX 312m
param *.uav[87].startY 1262m
param *.uav[87].startZ 540m
param *.uav[88].startX 2185m
param *.uav[88].startY 3026m
param *.uav[88].startZ 778m
param *.uav[89].startX 3537m
param *.uav[89].startY 965m
param *.uav[89].startZ 539m
param *.uav[90].startX 3537m
param *.uav[90].startY 965m
param *.uav[90].startZ 539m
param *.uav[91].startX 312m
param *.uav[91].startY 1262m
param *.uav[91].startZ 540m
param *.uav[92].startX 2185m
param *.uav[92].startY 3026m
param *.uav[92].startZ 778m
param *.uav[93].startX 3537m
param *.uav[93].startY 965m
param *.uav[93].startZ 539m
param *.uav[94].startX 312m
param *.uav[94].startY 1262m
param *.uav[94].startZ 540m
param *.uav[95].startX 2185m
param *.uav[95].startY 3026m
param *.uav[95].startZ 778m
param *.uav[96].startX 3537m
param *.uav[96].startY 965m
param *.uav[96].startZ 539m
param *.uav[97].startX 312m
param *.uav[97].startY 1262m
param *.uav[97].startZ 540m
param *.uav[98].startX 2185m
param *.uav[98].startY 3026m
param *.uav[98].startZ 778m
param *.uav[99].startX 3537m
param *.uav[99].startY 965m
param *.uav[99].startZ 539m
param *.osgEarthScene.scene "\"boston.earth\""
param *.playgroundLatitude 42.3558
param *.playgroundLongitude -71.0677
param *.playgroundWidth 400m
param *.playgroundHeight 200m
param *.channelController.connectionColor "\"#0000FF40\""
param *.channelController.showConnections false
param *.uav[*].modelURL "\"quadrocopter.small.obj.15.scale.0,0,90.rot\""
param *.uav[*].labelColor "\"#FF7C00CC\""
param *.uav[*].label2Color "\"#FF7C00EE\""
param *.uav[*].batteryCapacity 5200mAh
param *.uav[*].batteryRemaining uav[index].batteryCapacity
param *.uav[*].predictionQuantile 0.95
param *.uav[*].replacementMethod 2
param *.uav[*].weightedSumWeight 0.5
param *.cs[*].modelURL "\"chargingstation_v1.osgt.2.scale.0,0,0.rot.0,0,-15e-1.trans\""
param *.cs[*].spotsWaiting 999
param *.cs[*].spotsCharging 999
param *.cs[*].chargeEffectivenessPercentage 100
param *.cs[*].nonLinearPhaseStartPercentage 85
param *.cs[*].chargeCurrent 6.0A
param *.cs[*].prioritizeFastCharge true
param *.missionControl.replacementSearchMethod 0
param *.*.timeStep 9s

scalar OsgEarthNet.uav[0] utilizationSecMission 33514.894586848
scalar OsgEarthNet.uav[0] utilizationSecMaintenance 20473.169401826
scalar OsgEarthNet.uav[0] utilizationSecCharge 193330.11328604
scalar OsgEarthNet.uav[0] utilizationSecIdle 11881.821725284
scalar OsgEarthNet.uav[0] utilizationEnergyMission 161610.12771225
scalar OsgEarthNet.uav[0] utilizationEnergyMaintenance 96731.221672058
scalar OsgEarthNet.uav[0] utilizationEnergyCharge 257578.76708984
scalar OsgEarthNet.uav[0] utilizationEnergyOverdrawMission 0
scalar OsgEarthNet.uav[0] utilizationEnergyOverdrawMaintenance 0
scalar OsgEarthNet.uav[0] utilizationCountMissions 57
scalar OsgEarthNet.uav[0] utilizationCountManeuversMission 1068
scalar OsgEarthNet.uav[0] utilizationCountManeuversMaintenance 114
scalar OsgEarthNet.uav[0] utilizationCountChargeState 57
scalar OsgEarthNet.uav[0] utilizationCountOverdrawnAfterMission 0
scalar OsgEarthNet.uav[0] utilizationCountIdleState 27
scalar OsgEarthNet.uav[0] utilizationFail 0
scalar OsgEarthNet.uav[0] simulationTime 259200
scalar OsgEarthNet.uav[1] utilizationSecMission 31985.985075098
scalar OsgEarthNet.uav[1] utilizationSecMaintenance 17068.336500895
scalar OsgEarthNet.uav[1] utilizationSecCharge 183013.67487866
scalar OsgEarthNet.uav[1] utilizationSecIdle 27132.002545349
scalar OsgEarthNet.uav[1] utilizationEnergyMission 152883.09405136
scalar OsgEarthNet.uav[1] utilizationEnergyMaintenance 80981.773826599
scalar OsgEarthNet.uav[1] utilizationEnergyCharge 229409.78735352
scalar OsgEarthNet.uav[1] utilizationEnergyOverdrawMission 0
scalar OsgEarthNet.uav[1] utilizationEnergyOverdrawMaintenance 0
scalar OsgEarthNet.uav[1] utilizationCountMissions 57
scalar OsgEarthNet.uav[1] utilizationCountManeuversMission 864
scalar OsgEarthNet.uav[1] utilizationCountManeuversMaintenance 114
scalar OsgEarthNet.uav[1] utilizationCountChargeState 57
scalar OsgEarthNet.uav[1] utilizationCountOverdrawnAfterMission 0
scalar OsgEarthNet.uav[1] utilizationCountIdleState 54
scalar OsgEarthNet.uav[1] utilizationFail 0
scalar OsgEarthNet.uav[1] simulationTime 259200
scalar OsgEarthNet.uav[2] utilizationSecMission 33743.125555996
scalar OsgEarthNet.uav[2] utilizationSecMaintenance 15497.52393659
scalar OsgEarthNet.uav[2] utilizationSecCharge 182920.174397
scalar OsgEarthNet.uav[2] utilizationSecIdle 27039.175110411
scalar OsgEarthNet.uav[2] utilizationEnergyMission 166392.21603012
scalar OsgEarthNet.uav[2] utilizationEnergyMaintenance 72054.480922699
scalar OsgEarthNet.uav[2] utilizationEnergyCharge 237301.28857422
scalar OsgEarthNet.uav[2] utilizationEnergyOverdrawMission 0
scalar OsgEarthNet.uav[2] utilizationEnergyOverdrawMaintenance 0
scalar OsgEarthNet.uav[2] utilizationCountMissions 52
scalar OsgEarthNet.uav[2] utilizationCountManeuversMission 1292
scalar OsgEarthNet.uav[2] utilizationCountManeuversMaintenance 104
scalar OsgEarthNet.uav[2] utilizationCountChargeState 52
scalar OsgEarthNet.uav[2] utilizationCountOverdrawnAfterMission 0
scalar OsgEarthNet.uav[2] utilizationCountIdleState 51
scalar OsgEarthNet.uav[2] utilizationFail 0
scalar OsgEarthNet.uav[2] simulationTime 259200
scalar OsgEarthNet.uav[3] utilizationSecMission 35015.108112808
scalar OsgEarthNet.uav[3] utilizationSecMaintenance 18541.797731333
scalar OsgEarthNet.uav[3] utilizationSecCharge 194571.09315586
scalar OsgEarthNet.uav[3] utilizationSecIdle 11072
scalar OsgEarthNet.uav[3] utilizationEnergyMission 167936.38124466
scalar OsgEarthNet.uav[3] utilizationEnergyMaintenance 88361.662986755
scalar OsgEarthNet.uav[3] utilizationEnergyCharge 256164.79052734
scalar OsgEarthNet.uav[3] utilizationEnergyOverdrawMission 0
scalar OsgEarthNet.uav[3] utilizationEnergyOverdrawMaintenance 0
scalar OsgEarthNet.uav[3] utilizationCountMissions 57
scalar OsgEarthNet.uav[3] utilizationCountManeuversMission 993
scalar OsgEarthNet.uav[3] utilizationCountManeuversMaintenance 113
scalar OsgEarthNet.uav[3] utilizationCountChargeState 57
scalar OsgEarthNet.uav[3] utilizationCountOverdrawnAfterMission 0
scalar OsgEarthNet.uav[3] utilizationCountIdleState 39
scalar OsgEarthNet.uav[3] utilizationFail 0
scalar OsgEarthNet.uav[3] simulationTime 259200
scalar OsgEarthNet.uav[4] utilizationSecMission 30334.916626041
scalar OsgEarthNet.uav[4] utilizationSecMaintenance 18653.082373959
scalar OsgEarthNet.uav[4] utilizationSecCharge 186780
scalar OsgEarthNet.uav[4] utilizationSecIdle 23432
scalar OsgEarthNet.uav[4] utilizationEnergyMission 147291.11605072
scalar OsgEarthNet.uav[4] utilizationEnergyMaintenance 88792.023766832
scalar OsgEarthNet.uav[4] utilizationEnergyCharge 232264.91918945
scalar OsgEarthNet.uav[4] utilizationEnergyOverdrawMission 0
scalar OsgEarthNet.uav[4] utilizationEnergyOverdrawMaintenance 0
scalar OsgEarthNet.uav[4] utilizationCountMissions 59
scalar OsgEarthNet.uav[4] utilizationCountManeuversMission 904
scalar OsgEarthNet.uav[4] utilizationCountManeuversMaintenance 118
scalar OsgEarthNet.uav[4] utilizationCountChargeState 58
scalar OsgEarthNet.uav[4] utilizationCountOverdrawnAfterMission 0
scalar OsgEarthNet.uav[4] utilizationCountIdleState 58
scalar OsgEarthNet.uav[4] utilizationFail 0
scalar OsgEarthNet.uav[4] simulationTime 259200
scalar OsgEarthNet.uav[5] utilizationSecMission 35805.402684778
scalar OsgEarthNet.uav[5] utilizationSecMaintenance 14467.122513639
scalar OsgEarthNet.uav[5] utilizationSecCharge 182245.47380158
scalar OsgEarthNet.uav[5] utilizationSecIdle 26682
scalar OsgEarthNet.uav[5] utilizationEnergyMission 171192.01254298
scalar OsgEarthNet.uav[5] utilizationEnergyMaintenance 66435.791671753
scalar OsgEarthNet.uav[5] utilizationEnergyCharge 237416.52490234
scalar OsgEarthNet.uav[5] utilizationEnergyOverdrawMission 0
scalar OsgEarthNet.uav[5] utilizationEnergyOverdrawMaintenance 0
scalar OsgEarthNet.uav[5] utilizationCountMissions 52
scalar OsgEarthNet.uav[5] utilizationCountManeuversMission 1107
scalar OsgEarthNet.uav[5] utilizationCountManeuversMaintenance 103
scalar OsgEarthNet.uav[5] utilizationCountChargeState 52
scalar OsgEarthNet.uav[5] utilizationCountOverdrawnAfterMission 0
scalar OsgEarthNet.uav[5] utilizationCountIdleState 51
scalar OsgEarthNet.uav[5] utilizationFail 0
scalar OsgEarthNet.uav[5] simulationTime 259200
scalar OsgEarthNet.uav[6] utilizationSecMission 30212.193259985
scalar OsgEarthNet.uav[6] utilizationSecMaintenance 18929.981653071
scalar OsgEarthNet.uav[6] utilizationSecCharge 185975.81308694
scalar OsgEarthNet.uav[6] utilizationSecIdle 24082.011
scalar OsgEarthNet.uav[6] utilizationEnergyMission 145515.19254684
scalar OsgEarthNet.uav[6] utilizationEnergyMaintenance 90535.675170898
scalar OsgEarthNet.uav[6] utilizationEnergyCharge 237277.60498047
scalar OsgEarthNet.uav[6] utilizationEnergyOverdrawMission 0
scalar OsgEarthNet.uav[6] utilizationEnergyOverdrawMaintenance 0
scalar OsgEarthNet.uav[6] utilizationCountMissions 56
scalar OsgEarthNet.uav[6] utilizationCountManeuversMission 960
scalar OsgEarthNet.uav[6] utilizationCountManeuversMaintenance 112
scalar OsgEarthNet.uav[6] utilizationCountChargeState 56
scalar OsgEarthNet.uav[6] utilizationCountOverdrawnAfterMission 0
scalar OsgEarthNet.uav[6] utilizationCountIdleState 49
scalar OsgEarthNet.uav[6] utilizationFail 0
scalar OsgEarthNet.uav[6] simulationTime 259200
scalar OsgEarthNet.uav[7] utilizationSecMission 34866.922833598
scalar OsgEarthNet.uav[7] utilizationSecMaintenance 14339.828888791
scalar OsgEarthNet.uav[7] utilizationSecCharge 179137.80518892
scalar OsgEarthNet.uav[7] utilizationSecIdle 30855.442088691
scalar OsgEarthNet.uav[7] utilizationEnergyMission 168212.87976456
scalar OsgEarthNet.uav[7] utilizationEnergyMaintenance 66321.243057251
scalar OsgEarthNet.uav[7] utilizationEnergyCharge 232588.265625
scalar OsgEarthNet.uav[7] utilizationEnergyOverdrawMission 0
scalar OsgEarthNet.uav[7] utilizationEnergyOverdrawMaintenance 0
scalar OsgEarthNet.uav[7] utilizationCountMissions 51
scalar OsgEarthNet.uav[7] utilizationCountManeuversMission 1096
scalar OsgEarthNet.uav[7] utilizationCountManeuversMaintenance 102
scalar OsgEarthNet.uav[7] utilizationCountChargeState 51
scalar OsgEarthNet.uav[7] utilizationCountOverdrawnAfterMission 0
scalar OsgEarthNet.uav[7] utilizationCountIdleState 50
scalar OsgEarthNet.uav[7] utilizationFail 0
scalar OsgEarthNet.uav[7] simulationTime 259200
scalar OsgEarthNet.uav[8] utilizationSecMission 35898.750756345
scalar OsgEarthNet.uav[8] utilizationSecMaintenance 14689.248243655
scalar OsgEarthNet.uav[8] utilizationSecCharge 180830
scalar OsgEarthNet.uav[8] utilizationSecIdle 27782
scalar OsgEarthNet.uav[8] utilizationEnergyMission 171455.2127533
scalar OsgEarthNet.uav[8] utilizationEnergyMaintenance 67734.801192387
scalar OsgEarthNet.uav[8] utilizationEnergyCharge 235293.47314453
scalar OsgEarthNet.uav[8] utilizationEnergyOverdrawMission 0
scalar OsgEarthNet.uav[8] utilizationEnergyOverdrawMaintenance 0
scalar OsgEarthNet.uav[8] utilizationCountMissions 52
scalar OsgEarthNet.uav[8] utilizationCountManeuversMission 1086
scalar OsgEarthNet.uav[8] utilizationCountManeuversMaintenance 104
scalar OsgEarthNet.uav[8] utilizationCountChargeState 51
scalar OsgEarthNet.uav[8] utilizationCountOverdrawnAfterMission 0
scalar OsgEarthNet.uav[8] utilizationCountIdleState 50
scalar OsgEarthNet.uav[8] utilizationFail 0
scalar OsgEarthNet.uav[8] simulationTime 259200
scalar OsgEarthNet.uav[9] utilizationSecMission 33324.011395517
scalar OsgEarthNet.uav[9] utilizationSecMaintenance 20848.449295063
scalar OsgEarthNet.uav[9] utilizationSecCharge 194415.53430942
scalar OsgEarthNet.uav[9] utilizationSecIdle 10612.004
scalar OsgEarthNet.uav[9] utilizationEnergyMission 160998.89541245
scalar OsgEarthNet.uav[9] utilizationEnergyMaintenance 99009.07598114
scalar OsgEarthNet.uav[9] utilizationEnergyCharge 260501.42236328
scalar OsgEarthNet.uav[9] utilizationEnergyOverdrawMission 0
scalar OsgEarthNet.uav[9] utilizationEnergyOverdrawMaintenance 0
scalar OsgEarthNet.uav[9] utilizationCountMissions 58
scalar OsgEarthNet.uav[9] utilizationCountManeuversMission 1089
scalar OsgEarthNet.uav[9] utilizationCountManeuversMaintenance 116
scalar OsgEarthNet.uav[9] utilizationCountChargeState 58
scalar OsgEarthNet.uav[9] utilizationCountOverdrawnAfterMission 0
scalar OsgEarthNet.uav[9] utilizationCountIdleState 30
scalar OsgEarthNet.uav[9] utilizationFail 0
scalar OsgEarthNet.uav[9] simulationTime 259200
scalar OsgEarthNet.uav[10] utilizationSecMission 34317.368599124
scalar OsgEarthNet.uav[10] utilizationSecMaintenance 20089.238283342
scalar OsgEarthNet.uav[10] utilizationSecCharge 194610
scalar OsgEarthNet.uav[10] utilizationSecIdle 10183.392117534
scalar OsgEarthNet.uav[10] utilizationEnergyMission 167414.23379712
scalar OsgEarthNet.uav[10] utilizationEnergyMaintenance 95267.347465515
scalar OsgEarthNet.uav[10] utilizationEnergyCharge 257764.22949219
scalar OsgEarthNet.uav[10] utilizationEnergyOverdrawMission 0
scalar OsgEarthNet.uav[10] utilizationEnergyOverdrawMaintenance 0
scalar OsgEarthNet.uav[10] utilizationCountMissions 57
scalar OsgEarthNet.uav[10] utilizationCountManeuversMission 1078
scalar OsgEarthNet.uav[10] utilizationCountManeuversMaintenance 115
scalar OsgEarthNet.uav[10] utilizationCountChargeState 57
scalar OsgEarthNet.uav[10] utilizationCountOverdrawnAfterMission 0
scalar OsgEarthNet.uav[10] utilizationCountIdleState 29
scalar OsgEarthNet.uav[10] utilizationFail 0
scalar OsgEarthNet.uav[10] simulationTime 259200
scalar OsgEarthNet.uav[11] utilizationSecMission 29842.088319822
scalar OsgEarthNet.uav[11] utilizationSecMaintenance 18375.906680178
scalar OsgEarthNet.uav[11] utilizationSecCharge 184540
scalar OsgEarthNet.uav[11] utilizationSecIdle 26442.004
scalar OsgEarthNet.uav[11] utilizationEnergyMission 144095.93766491
scalar OsgEarthNet.uav[11] utilizationEnergyMaintenance 87939.325675964
scalar OsgEarthNet.uav[11] utilizationEnergyCharge 228415.27856445
scalar OsgEarthNet.uav[11] utilizationEnergyOverdrawMission 0
scalar OsgEarthNet.uav[11] utilizationEnergyOverdrawMaintenance 0
scalar OsgEarthNet.uav[11] utilizationCountMissions 58
scalar OsgEarthNet.uav[11] utilizationCountManeuversMission 909
scalar OsgEarthNet.uav[11] utilizationCountManeuversMaintenance 117
scalar OsgEarthNet.uav[11] utilizationCountChargeState 58
scalar OsgEarthNet.uav[11] utilizationCountOverdrawnAfterMission 0
scalar OsgEarthNet.uav[11] utilizationCountIdleState 56
scalar OsgEarthNet.uav[11] utilizationFail 0
scalar OsgEarthNet.uav[11] simulationTime 259200
scalar OsgEarthNet.uav[12] utilizationSecMission 34614.808954762
scalar OsgEarthNet.uav[12] utilizationSecMaintenance 14125.745604636
scalar OsgEarthNet.uav[12] utilizationSecCharge 181350
scalar OsgEarthNet.uav[12] utilizationSecIdle 29109.444440602
scalar OsgEarthNet.uav[12] utilizationEnergyMission 167507.74792099
scalar OsgEarthNet.uav[12] utilizationEnergyMaintenance 66056.860031128
scalar OsgEarthNet.uav[12] utilizationEnergyCharge 235709.22900391
scalar OsgEarthNet.uav[12] utilizationEnergyOverdrawMission 0
scalar OsgEarthNet.uav[12] utilizationEnergyOverdrawMaintenance 0
scalar OsgEarthNet.uav[12] utilizationCountMissions 51
scalar OsgEarthNet.uav[12] utilizationCountManeuversMission 1170
scalar OsgEarthNet.uav[12] utilizationCountManeuversMaintenance 102
scalar OsgEarthNet.uav[12] utilizationCountChargeState 51
scalar OsgEarthNet.uav[12] utilizationCountOverdrawnAfterMission 0
scalar OsgEarthNet.uav[12] utilizationCountIdleState 51
scalar OsgEarthNet.uav[12] utilizationFail 0
scalar OsgEarthNet.uav[12] simulationTime 259200
scalar OsgEarthNet.uav[13] utilizationSecMission 28415.98774024
scalar OsgEarthNet.uav[13] utilizationSecMaintenance 18802.959163031
scalar OsgEarthNet.uav[13] utilizationSecCharge 182720
scalar OsgEarthNet.uav[13] utilizationSecIdle 29261.052096729
scalar OsgEarthNet.uav[13] utilizationEnergyMission 137913.73790359
scalar OsgEarthNet.uav[13] utilizationEnergyMaintenance 89811.221794128
scalar OsgEarthNet.uav[13] utilizationEnergyCharge 226825.02368164
scalar OsgEarthNet.uav[13] utilizationEnergyOverdrawMission 0
scalar OsgEarthNet.uav[13] utilizationEnergyOverdrawMaintenance 0
scalar OsgEarthNet.uav[13] utilizationCountMissions 57
scalar OsgEarthNet.uav[13] utilizationCountManeuversMission 905
scalar OsgEarthNet.uav[13] utilizationCountManeuversMaintenance 114
scalar OsgEarthNet.uav[13] utilizationCountChargeState 57
scalar OsgEarthNet.uav[13] utilizationCountOverdrawnAfterMission 0
scalar OsgEarthNet.uav[13] utilizationCountIdleState 57
scalar OsgEarthNet.uav[13] utilizationFail 0
scalar OsgEarthNet.uav[13] simulationTime 259200
scalar OsgEarthNet.uav[14] utilizationSecMission 32432.258151158
scalar OsgEarthNet.uav[14] utilizationSecMaintenance 16782.066063432
scalar OsgEarthNet.uav[14] utilizationSecCharge 184553.67478541
scalar OsgEarthNet.uav[14] utilizationSecIdle 25432
scalar OsgEarthNet.uav[14] utilizationEnergyMission 154686.81396484
scalar OsgEarthNet.uav[14] utilizationEnergyMaintenance 79307.770782471
scalar OsgEarthNet.uav[14] utilizationEnergyCharge 233875.07958984
scalar OsgEarthNet.uav[14] utilizationEnergyOverdrawMission 0
scalar OsgEarthNet.uav[14] utilizationEnergyOverdrawMaintenance 0
scalar OsgEarthNet.uav[14] utilizationCountMissions 56
scalar OsgEarthNet.uav[14] utilizationCountManeuversMission 909
scalar OsgEarthNet.uav[14] utilizationCountManeuversMaintenance 111
scalar OsgEarthNet.uav[14] utilizationCountChargeState 56
scalar OsgEarthNet.uav[14] utilizationCountOverdrawnAfterMission 0
scalar OsgEarthNet.uav[14] utilizationCountIdleState 53
scalar OsgEarthNet.uav[14] utilizationFail 0
scalar OsgEarthNet.uav[14] simulationTime 259200
scalar OsgEarthNet.uav[15] utilizationSecMission 35812.697104072
scalar OsgEarthNet.uav[15] utilizationSecMaintenance 13772.086152194
scalar OsgEarthNet.uav[15] utilizationSecCharge 180183.21574373
scalar OsgEarthNet.uav[15] utilizationSecIdle 29432
scalar OsgEarthNet.uav[15] utilizationEnergyMission 170919.5019989
scalar OsgEarthNet.uav[15] utilizationEnergyMaintenance 63223.918949127
scalar OsgEarthNet.uav[15] utilizationEnergyCharge 234505.36962891
scalar OsgEarthNet.uav[15] utilizationEnergyOverdrawMission 0
scalar OsgEarthNet.uav[15] utilizationEnergyOverdrawMaintenance 0
scalar OsgEarthNet.uav[15] utilizationCountMissions 51
scalar OsgEarthNet.uav[15] utilizationCountManeuversMission 1027
scalar OsgEarthNet.uav[15] utilizationCountManeuversMaintenance 102
scalar OsgEarthNet.uav[15] utilizationCountChargeState 51
scalar OsgEarthNet.uav[15] utilizationCountOverdrawnAfterMission 0
scalar OsgEarthNet.uav[15] utilizationCountIdleState 50
scalar OsgEarthNet.uav[15] utilizationFail 0
scalar OsgEarthNet.uav[15] simulationTime 259200
scalar OsgEarthNet.uav[16] utilizationSecMission 33104.966839861
scalar OsgEarthNet.uav[16] utilizationSecMaintenance 14483.040424047
scalar OsgEarthNet.uav[16] utilizationSecCharge 177670
scalar OsgEarthNet.uav[16] utilizationSecIdle 33941.991736092
scalar OsgEarthNet.uav[16] utilizationEnergyMission 162397.63269728
scalar OsgEarthNet.uav[16] utilizationEnergyMaintenance 67255.844120026
scalar OsgEarthNet.uav[16] utilizationEnergyCharge 229677.3671875
scalar OsgEarthNet.uav[16] utilizationEnergyOverdrawMission 0
scalar OsgEarthNet.uav[16] utilizationEnergyOverdrawMaintenance 0
scalar OsgEarthNet.uav[16] utilizationCountMissions 50
scalar OsgEarthNet.uav[16] utilizationCountManeuversMission 1257
scalar OsgEarthNet.uav[16] utilizationCountManeuversMaintenance 101
scalar OsgEarthNet.uav[16] utilizationCountChargeState 50
scalar OsgEarthNet.uav[16] utilizationCountOverdrawnAfterMission 0
scalar OsgEarthNet.uav[16] utilizationCountIdleState 51
scalar OsgEarthNet.uav[16] utilizationFail 0
scalar OsgEarthNet.uav[16] simulationTime 259200
scalar OsgEarthNet.uav[17] utilizationSecMission 31415.068577225
scalar OsgEarthNet.uav[17] utilizationSecMaintenance 18077.988437622
scalar OsgEarthNet.uav[17] utilizationSecCharge 186944.93898515
scalar OsgEarthNet.uav[17] utilizationSecIdle 22762.003
scalar OsgEarthNet.uav[17] utilizationEnergyMission 150795.9066124
scalar OsgEarthNet.uav[17] utilizationEnergyMaintenance 85692.156078339
scalar OsgEarthNet.uav[17] utilizationEnergyCharge 236133.47192383
scalar OsgEarthNet.uav[17] utilizationEnergyOverdrawMission 0
scalar OsgEarthNet.uav[17] utilizationEnergyOverdrawMaintenance 0
scalar OsgEarthNet.uav[17] utilizationCountMissions 57
scalar OsgEarthNet.uav[17] utilizationCountManeuversMission 976
scalar OsgEarthNet.uav[17] utilizationCountManeuversMaintenance 114
scalar OsgEarthNet.uav[17] utilizationCountChargeState 57
scalar OsgEarthNet.uav[17] utilizationCountOverdrawnAfterMission 0
scalar OsgEarthNet.uav[17] utilizationCountIdleState 56
scalar OsgEarthNet.uav[17] utilizationFail 0
scalar OsgEarthNet.uav[17] simulationTime 259200
scalar OsgEarthNet.uav[18] utilizationSecMission 35560.344798127
scalar OsgEarthNet.uav[18] utilizationSecMaintenance 13417.419048973
scalar OsgEarthNet.uav[18] utilizationSecCharge 178810
scalar OsgEarthNet.uav[18] utilizationSecIdle 31412.2351529
scalar OsgEarthNet.uav[18] utilizationEnergyMission 172066.4506073
scalar OsgEarthNet.uav[18] utilizationEnergyMaintenance 61053.081382752
scalar OsgEarthNet.uav[18] utilizationEnergyCharge 232163.32519531
scalar OsgEarthNet.uav[18] utilizationEnergyOverdrawMission 0
scalar OsgEarthNet.uav[18] utilizationEnergyOverdrawMaintenance 0
scalar OsgEarthNet.uav[18] utilizationCountMissions 50
scalar OsgEarthNet.uav[18] utilizationCountManeuversMission 1028
scalar OsgEarthNet.uav[18] utilizationCountManeuversMaintenance 100
scalar OsgEarthNet.uav[18] utilizationCountChargeState 50
scalar OsgEarthNet.uav[18] utilizationCountOverdrawnAfterMission 0
scalar OsgEarthNet.uav[18] utilizationCountIdleState 51
scalar OsgEarthNet.uav[18] utilizationFail 0
scalar OsgEarthNet.uav[18] simulationTime 259200
scalar OsgEarthNet.uav[19] utilizationSecMission 34697.881279093
scalar OsgEarthNet.uav[19] utilizationSecMaintenance 14568.57383614
scalar OsgEarthNet.uav[19] utilizationSecCharge 179512.5946291
scalar OsgEarthNet.uav[19] utilizationSecIdle 30420.949255665
scalar OsgEarthNet.uav[19] utilizationEnergyMission 165474.00561905
scalar OsgEarthNet.uav[19] utilizationEnergyMaintenance 68573.804111481
scalar OsgEarthNet.uav[19] utilizationEnergyCharge 233278.41674805
scalar OsgEarthNet.uav[19] utilizationEnergyOverdrawMission 0
scalar OsgEarthNet.uav[19] utilizationEnergyOverdrawMaintenance 0
scalar OsgEarthNet.uav[19] utilizationCountMissions 51
scalar OsgEarthNet.uav[19] utilizationCountManeuversMission 995
scalar OsgEarthNet.uav[19] utilizationCountManeuversMaintenance 102
scalar OsgEarthNet.uav[19] utilizationCountChargeState 51
scalar OsgEarthNet.uav[19] utilizationCountOverdrawnAfterMission 0
scalar OsgEarthNet.uav[19] utilizationCountIdleState 51
scalar OsgEarthNet.uav[19] utilizationFail 0
scalar OsgEarthNet.uav[19] simulationTime 259200
scalar OsgEarthNet.uav[20] utilizationSecMission 30343.283781565
scalar OsgEarthNet.uav[20] utilizationSecMaintenance 17414.525126204
scalar OsgEarthNet.uav[20] utilizationSecCharge 184490.18709223
scalar OsgEarthNet.uav[20] utilizationSecIdle 26952.003
scalar OsgEarthNet.uav[20] utilizationEnergyMission 142740.86489105
scalar OsgEarthNet.uav[20] utilizationEnergyMaintenance 82968.965763092
scalar OsgEarthNet.uav[20] utilizationEnergyCharge 227700.20727539
scalar OsgEarthNet.uav[20] utilizationEnergyOverdrawMission 0
scalar OsgEarthNet.uav[20] utilizationEnergyOverdrawMaintenance 0
scalar OsgEarthNet.uav[20] utilizationCountMissions 59
scalar OsgEarthNet.uav[20] utilizationCountManeuversMission 708
scalar OsgEarthNet.uav[20] utilizationCountManeuversMaintenance 118
scalar OsgEarthNet.uav[20] utilizationCountChargeState 59
scalar OsgEarthNet.uav[20] utilizationCountOverdrawnAfterMission 0
scalar OsgEarthNet.uav[20] utilizationCountIdleState 59
scalar OsgEarthNet.uav[20] utilizationFail 0
scalar OsgEarthNet.uav[20] simulationTime 259200
scalar OsgEarthNet.uav[21] utilizationSecMission 30182.781980702
scalar OsgEarthNet.uav[21] utilizationSecMaintenance 18245.547665156
scalar OsgEarthNet.uav[21] utilizationSecCharge 185120.70536847
scalar OsgEarthNet.uav[21] utilizationSecIdle 25650.963985674
scalar OsgEarthNet.uav[21] utilizationEnergyMission 148336.88753128
scalar OsgEarthNet.uav[21] utilizationEnergyMaintenance 86403.24704361
scalar OsgEarthNet.uav[21] utilizationEnergyCharge 232280.70068359
scalar OsgEarthNet.uav[21] utilizationEnergyOverdrawMission 0
scalar OsgEarthNet.uav[21] utilizationEnergyOverdrawMaintenance 0
scalar OsgEarthNet.uav[21] utilizationCountMissions 58
scalar OsgEarthNet.uav[21] utilizationCountManeuversMission 928
scalar OsgEarthNet.uav[21] utilizationCountManeuversMaintenance 116
scalar OsgEarthNet.uav[21] utilizationCountChargeState 58
scalar OsgEarthNet.uav[21] utilizationCountOverdrawnAfterMission 0
scalar OsgEarthNet.uav[21] utilizationCountIdleState 57
scalar OsgEarthNet.uav[21] utilizationFail 0
scalar OsgEarthNet.uav[21] simulationTime 259200
scalar OsgEarthNet.uav[22] utilizationSecMission 33905.558026134
scalar OsgEarthNet.uav[22] utilizationSecMaintenance 14624.650063146
scalar OsgEarthNet.uav[22] utilizationSecCharge 180940
scalar OsgEarthNet.uav[22] utilizationSecIdle 29729.79091072
scalar OsgEarthNet.uav[22] utilizationEnergyMission 167499.77798843
scalar OsgEarthNet.uav[22] utilizationEnergyMaintenance 68121.537799835
scalar OsgEarthNet.uav[22] utilizationEnergyCharge 234043.61328125
scalar OsgEarthNet.uav[22] utilizationEnergyOverdrawMission 0
scalar OsgEarthNet.uav[22] utilizationEnergyOverdrawMaintenance 0
scalar OsgEarthNet.uav[22] utilizationCountMissions 51
scalar OsgEarthNet.uav[22] utilizationCountManeuversMission 1124
scalar OsgEarthNet.uav[22] utilizationCountManeuversMaintenance 102
scalar OsgEarthNet.uav[22] utilizationCountChargeState 51
scalar OsgEarthNet.uav[22] utilizationCountOverdrawnAfterMission 0
scalar OsgEarthNet.uav[22] utilizationCountIdleState 52
scalar OsgEarthNet.uav[22] utilizationFail 0
scalar OsgEarthNet.uav[22] simulationTime 259200
scalar OsgEarthNet.uav[23] utilizationSecMission 33816.770357648
scalar OsgEarthNet.uav[23] utilizationSecMaintenance 15795.606364271
scalar OsgEarthNet.uav[23] utilizationSecCharge 181175.47753813
scalar OsgEarthNet.uav[23] utilizationSecIdle 28412.144739949
scalar OsgEarthNet.uav[23] utilizationEnergyMission 165879.25078583
scalar OsgEarthNet.uav[23] utilizationEnergyMaintenance 72418.250572205
scalar OsgEarthNet.uav[23] utilizationEnergyCharge 234389.40881348
scalar OsgEarthNet.uav[23] utilizationEnergyOverdrawMission 0
scalar OsgEarthNet.uav[23] utilizationEnergyOverdrawMaintenance 0
scalar OsgEarthNet.uav[23] utilizationCountMissions 52
scalar OsgEarthNet.uav[23] utilizationCountManeuversMission 1220
scalar OsgEarthNet.uav[23] utilizationCountManeuversMaintenance 104
scalar OsgEarthNet.uav[23] utilizationCountChargeState 52
scalar OsgEarthNet.uav[23] utilizationCountOverdrawnAfterMission 0
scalar OsgEarthNet.uav[23] utilizationCountIdleState 52
scalar OsgEarthNet.uav[23] utilizationFail 0
scalar OsgEarthNet.uav[23] simulationTime 259200
scalar OsgEarthNet.uav[24] utilizationSecMission 32668.040313949
scalar OsgEarthNet.uav[24] utilizationSecMaintenance 15691.848281631
scalar OsgEarthNet.uav[24] utilizationSecCharge 183410
scalar OsgEarthNet.uav[24] utilizationSecIdle 27430.11040442
scalar OsgEarthNet.uav[24] utilizationEnergyMission 156429.54337311
scalar OsgEarthNet.uav[24] utilizationEnergyMaintenance 74931.535045624
scalar OsgEarthNet.uav[24] utilizationEnergyCharge 231709.77758789
scalar OsgEarthNet.uav[24] utilizationEnergyOverdrawMission 0
scalar OsgEarthNet.uav[24] utilizationEnergyOverdrawMaintenance 0
scalar OsgEarthNet.uav[24] utilizationCountMissions 55
scalar OsgEarthNet.uav[24] utilizationCountManeuversMission 846
scalar OsgEarthNet.uav[24] utilizationCountManeuversMaintenance 110
scalar OsgEarthNet.uav[24] utilizationCountChargeState 55
scalar OsgEarthNet.uav[24] utilizationCountOverdrawnAfterMission 0
scalar OsgEarthNet.uav[24] utilizationCountIdleState 53
scalar OsgEarthNet.uav[24] utilizationFail 0
scalar OsgEarthNet.uav[24] simulationTime 259200
scalar OsgEarthNet.uav[25] utilizationSecMission 34675.389960741
scalar OsgEarthNet.uav[25] utilizationSecMaintenance 15093.960082551
scalar OsgEarthNet.uav[25] utilizationSecCharge 183318.64795671
scalar OsgEarthNet.uav[25] utilizationSecIdle 26112.001
scalar OsgEarthNet.uav[25] utilizationEnergyMission 168738.41347122
scalar OsgEarthNet.uav[25] utilizationEnergyMaintenance 69714.574661255
scalar OsgEarthNet.uav[25] utilizationEnergyCharge 238712.44189453
scalar OsgEarthNet.uav[25] utilizationEnergyOverdrawMission 0
scalar OsgEarthNet.uav[25] utilizationEnergyOverdrawMaintenance 0
scalar OsgEarthNet.uav[25] utilizationCountMissions 52
scalar OsgEarthNet.uav[25] utilizationCountManeuversMission 1220
scalar OsgEarthNet.uav[25] utilizationCountManeuversMaintenance 104
scalar OsgEarthNet.uav[25] utilizationCountChargeState 52
scalar OsgEarthNet.uav[25] utilizationCountOverdrawnAfterMission 0
scalar OsgEarthNet.uav[25] utilizationCountIdleState 51
scalar OsgEarthNet.uav[25] utilizationFail 0
scalar OsgEarthNet.uav[25] simulationTime 259200
scalar OsgEarthNet.uav[26] utilizationSecMission 30411.48895575
scalar OsgEarthNet.uav[26] utilizationSecMaintenance 17330.174934048
scalar OsgEarthNet.uav[26] utilizationSecCharge 182496.3271102
scalar OsgEarthNet.uav[26] utilizationSecIdle 28962.008
scalar OsgEarthNet.uav[26] utilizationEnergyMission 144925.16490173
scalar OsgEarthNet.uav[26] utilizationEnergyMaintenance 81558.140220642
scalar OsgEarthNet.uav[26] utilizationEnergyCharge 225995.87207031
scalar OsgEarthNet.uav[26] utilizationEnergyOverdrawMission 0
scalar OsgEarthNet.uav[26] utilizationEnergyOverdrawMaintenance 0
scalar OsgEarthNet.uav[26] utilizationCountMissions 58
scalar OsgEarthNet.uav[26] utilizationCountManeuversMission 793
scalar OsgEarthNet.uav[26] utilizationCountManeuversMaintenance 116
scalar OsgEarthNet.uav[26] utilizationCountChargeState 58
scalar OsgEarthNet.uav[26] utilizationCountOverdrawnAfterMission 0
scalar OsgEarthNet.uav[26] utilizationCountIdleState 57
scalar OsgEarthNet.uav[26] utilizationFail 0
scalar OsgEarthNet.uav[26] simulationTime 259200
scalar OsgEarthNet.uav[27] utilizationSecMission 32296.436147794
scalar OsgEarthNet.uav[27] utilizationSecMaintenance 16315.161500899
scalar OsgEarthNet.uav[27] utilizationSecCharge 182426.39984458
scalar OsgEarthNet.uav[27] utilizationSecIdle 28162.001506722
scalar OsgEarthNet.uav[27] utilizationEnergyMission 159971.80583954
scalar OsgEarthNet.uav[27] utilizationEnergyMaintenance 76755.698375702
scalar OsgEarthNet.uav[27] utilizationEnergyCharge 237024.83691406
scalar OsgEarthNet.uav[27] utilizationEnergyOverdrawMission 0
scalar OsgEarthNet.uav[27] utilizationEnergyOverdrawMaintenance 0
scalar OsgEarthNet.uav[27] utilizationCountMissions 52
scalar OsgEarthNet.uav[27] utilizationCountManeuversMission 1199
scalar OsgEarthNet.uav[27] utilizationCountManeuversMaintenance 104
scalar OsgEarthNet.uav[27] utilizationCountChargeState 52
scalar OsgEarthNet.uav[27] utilizationCountOverdrawnAfterMission 0
scalar OsgEarthNet.uav[27] utilizationCountIdleState 51
scalar OsgEarthNet.uav[27] utilizationFail 0
scalar OsgEarthNet.uav[27] simulationTime 259200
scalar OsgEarthNet.uav[28] utilizationSecMission 34265.446961876
scalar OsgEarthNet.uav[28] utilizationSecMaintenance 14545.126690833
scalar OsgEarthNet.uav[28] utilizationSecCharge 181880
scalar OsgEarthNet.uav[28] utilizationSecIdle 28509.42534729
scalar OsgEarthNet.uav[28] utilizationEnergyMission 169561.13160324
scalar OsgEarthNet.uav[28] utilizationEnergyMaintenance 67064.214025004
scalar OsgEarthNet.uav[28] utilizationEnergyCharge 235888.99707031
scalar OsgEarthNet.uav[28] utilizationEnergyOverdrawMission 0
scalar OsgEarthNet.uav[28] utilizationEnergyOverdrawMaintenance 0
scalar OsgEarthNet.uav[28] utilizationCountMissions 51
scalar OsgEarthNet.uav[28] utilizationCountManeuversMission 1252
scalar OsgEarthNet.uav[28] utilizationCountManeuversMaintenance 103
scalar OsgEarthNet.uav[28] utilizationCountChargeState 51
scalar OsgEarthNet.uav[28] utilizationCountOverdrawnAfterMission 0
scalar OsgEarthNet.uav[28] utilizationCountIdleState 51
scalar OsgEarthNet.uav[28] utilizationFail 0
scalar OsgEarthNet.uav[28] simulationTime 259200
scalar OsgEarthNet.uav[29] utilizationSecMission 31219.119249954
scalar OsgEarthNet.uav[29] utilizationSecMaintenance 22529.648588176
scalar OsgEarthNet.uav[29] utilizationSecCharge 193339.09134873
scalar OsgEarthNet.uav[29] utilizationSecIdle 12112.139813144
scalar OsgEarthNet.uav[29] utilizationEnergyMission 154571.28123474
scalar OsgEarthNet.uav[29] utilizationEnergyMaintenance 106728.08420181
scalar OsgEarthNet.uav[29] utilizationEnergyCharge 257047.1005249
scalar OsgEarthNet.uav[29] utilizationEnergyOverdrawMission 0
scalar OsgEarthNet.uav[29] utilizationEnergyOverdrawMaintenance 0
scalar OsgEarthNet.uav[29] utilizationCountMissions 58
scalar OsgEarthNet.uav[29] utilizationCountManeuversMission 1175
scalar OsgEarthNet.uav[29] utilizationCountManeuversMaintenance 116
scalar OsgEarthNet.uav[29] utilizationCountChargeState 58
scalar OsgEarthNet.uav[29] utilizationCountOverdrawnAfterMission 0
scalar OsgEarthNet.uav[29] utilizationCountIdleState 29
scalar OsgEarthNet.uav[29] utilizationFail 0
scalar OsgEarthNet.uav[29] simulationTime 259200
scalar OsgEarthNet.uav[30] utilizationSecMission 34884.546736851
scalar OsgEarthNet.uav[30] utilizationSecMaintenance 13901.288490242
scalar OsgEarthNet.uav[30] utilizationSecCharge 178650
scalar OsgEarthNet.uav[30] utilizationSecIdle 31764.163772908
scalar OsgEarthNet.uav[30] utilizationEnergyMission 170259.34113618
scalar OsgEarthNet.uav[30] utilizationEnergyMaintenance 63614.25553894
scalar OsgEarthNet.uav[30] utilizationEnergyCharge 231671.984375
scalar OsgEarthNet.uav[30] utilizationEnergyOverdrawMission 0
scalar OsgEarthNet.uav[30] utilizationEnergyOverdrawMaintenance 0
scalar OsgEarthNet.uav[30] utilizationCountMissions 50
scalar OsgEarthNet.uav[30] utilizationCountManeuversMission 1113
scalar OsgEarthNet.uav[30] utilizationCountManeuversMaintenance 101
scalar OsgEarthNet.uav[30] utilizationCountChargeState 50
scalar OsgEarthNet.uav[30] utilizationCountOverdrawnAfterMission 0
scalar OsgEarthNet.uav[30] utilizationCountIdleState 51
scalar OsgEarthNet.uav[30] utilizationFail 0
scalar OsgEarthNet.uav[30] simulationTime 259200
scalar OsgEarthNet.uav[31] utilizationSecMission 30005.489135173
scalar OsgEarthNet.uav[31] utilizationSecMaintenance 17672.503864827
scalar OsgEarthNet.uav[31] utilizationSecCharge 184420
scalar OsgEarthNet.uav[31] utilizationSecIdle 27102.006
scalar OsgEarthNet.uav[31] utilizationEnergyMission 147030.01723099
scalar OsgEarthNet.uav[31] utilizationEnergyMaintenance 84073.617037702
scalar OsgEarthNet.uav[31] utilizationEnergyCharge 230348.27880859
scalar OsgEarthNet.uav[31] utilizationEnergyOverdrawMission 0
scalar OsgEarthNet.uav[31] utilizationEnergyOverdrawMaintenance 0
scalar OsgEarthNet.uav[31] utilizationCountMissions 57
scalar OsgEarthNet.uav[31] utilizationCountManeuversMission 906
scalar OsgEarthNet.uav[31] utilizationCountManeuversMaintenance 115
scalar OsgEarthNet.uav[31] utilizationCountChargeState 57
scalar OsgEarthNet.uav[31] utilizationCountOverdrawnAfterMission 0
scalar OsgEarthNet.uav[31] utilizationCountIdleState 55
scalar OsgEarthNet.uav[31] utilizationFail 0
scalar OsgEarthNet.uav[31] simulationTime 259200
scalar OsgEarthNet.uav[32] utilizationSecMission 35898.508751331
scalar OsgEarthNet.uav[32] utilizationSecMaintenance 14149.490248669
scalar OsgEarthNet.uav[32] utilizationSecCharge 181190
scalar OsgEarthNet.uav[32] utilizationSecIdle 27962
scalar OsgEarthNet.uav[32] utilizationEnergyMission 171307.57881831
scalar OsgEarthNet.uav[32] utilizationEnergyMaintenance 65556.799167633
scalar OsgEarthNet.uav[32] utilizationEnergyCharge 235944.86181641
scalar OsgEarthNet.uav[32] utilizationEnergyOverdrawMission 0
scalar OsgEarthNet.uav[32] utilizationEnergyOverdrawMaintenance 0
scalar OsgEarthNet.uav[32] utilizationCountMissions 51
scalar OsgEarthNet.uav[32] utilizationCountManeuversMission 1087
scalar OsgEarthNet.uav[32] utilizationCountManeuversMaintenance 102
scalar OsgEarthNet.uav[32] utilizationCountChargeState 51
scalar OsgEarthNet.uav[32] utilizationCountOverdrawnAfterMission 0
scalar OsgEarthNet.uav[32] utilizationCountIdleState 51
scalar OsgEarthNet.uav[32] utilizationFail 0
scalar OsgEarthNet.uav[32] simulationTime 259200
scalar OsgEarthNet.uav[33] utilizationSecMission 33525.261700677
scalar OsgEarthNet.uav[33] utilizationSecMaintenance 19999.925177298
scalar OsgEarthNet.uav[33] utilizationSecCharge 192363.29846108
scalar OsgEarthNet.uav[33] utilizationSecIdle 13311.51366095
scalar OsgEarthNet.uav[33] utilizationEnergyMission 162177.32488251
scalar OsgEarthNet.uav[33] utilizationEnergyMaintenance 94933.669101715
scalar OsgEarthNet.uav[33] utilizationEnergyCharge 255296.98754883
scalar OsgEarthNet.uav[33] utilizationEnergyOverdrawMission 0
scalar OsgEarthNet.uav[33] utilizationEnergyOverdrawMaintenance 0
scalar OsgEarthNet.uav[33] utilizationCountMissions 57
scalar OsgEarthNet.uav[33] utilizationCountManeuversMission 1047
scalar OsgEarthNet.uav[33] utilizationCountManeuversMaintenance 114
scalar OsgEarthNet.uav[33] utilizationCountChargeState 57
scalar OsgEarthNet.uav[33] utilizationCountOverdrawnAfterMission 0
scalar OsgEarthNet.uav[33] utilizationCountIdleState 35
scalar OsgEarthNet.uav[33] utilizationFail 0
scalar OsgEarthNet.uav[33] simulationTime 259200
scalar OsgEarthNet.uav[34] utilizationSecMission 31220.234442499
scalar OsgEarthNet.uav[34] utilizationSecMaintenance 17036.096379513
scalar OsgEarthNet.uav[34] utilizationSecCharge 183520
scalar OsgEarthNet.uav[34] utilizationSecIdle 27423.668177988
scalar OsgEarthNet.uav[34] utilizationEnergyMission 149902.25068961
scalar OsgEarthNet.uav[34] utilizationEnergyMaintenance 81043.386131287
scalar OsgEarthNet.uav[34] utilizationEnergyCharge 229620.16381836
scalar OsgEarthNet.uav[34] utilizationEnergyOverdrawMission 0
scalar OsgEarthNet.uav[34] utilizationEnergyOverdrawMaintenance 0
scalar OsgEarthNet.uav[34] utilizationCountMissions 57
scalar OsgEarthNet.uav[34] utilizationCountManeuversMission 807
scalar OsgEarthNet.uav[34] utilizationCountManeuversMaintenance 115
scalar OsgEarthNet.uav[34] utilizationCountChargeState 57
scalar OsgEarthNet.uav[34] utilizationCountOverdrawnAfterMission 0
scalar OsgEarthNet.uav[34] utilizationCountIdleState 55
scalar OsgEarthNet.uav[34] utilizationFail 0
scalar OsgEarthNet.uav[34] simulationTime 259200
scalar OsgEarthNet.uav[35] utilizationSecMission 34023.267483871
scalar OsgEarthNet.uav[35] utilizationSecMaintenance 15498.794210773
scalar OsgEarthNet.uav[35] utilizationSecCharge 182135.93330536
scalar OsgEarthNet.uav[35] utilizationSecIdle 27542.004
scalar OsgEarthNet.uav[35] utilizationEnergyMission 168434.25686646
scalar OsgEarthNet.uav[35] utilizationEnergyMaintenance 71148.613842011
scalar OsgEarthNet.uav[35] utilizationEnergyCharge 236711.88061523
scalar OsgEarthNet.uav[35] utilizationEnergyOverdrawMission 0
scalar OsgEarthNet.uav[35] utilizationEnergyOverdrawMaintenance 0
scalar OsgEarthNet.uav[35] utilizationCountMissions 52
scalar OsgEarthNet.uav[35] utilizationCountManeuversMission 1172
scalar OsgEarthNet.uav[35] utilizationCountManeuversMaintenance 104
scalar OsgEarthNet.uav[35] utilizationCountChargeState 52
scalar OsgEarthNet.uav[35] utilizationCountOverdrawnAfterMission 0
scalar OsgEarthNet.uav[35] utilizationCountIdleState 51
scalar OsgEarthNet.uav[35] utilizationFail 0
scalar OsgEarthNet.uav[35] simulationTime 259200
scalar OsgEarthNet.uav[36] utilizationSecMission 34397.395197169
scalar OsgEarthNet.uav[36] utilizationSecMaintenance 19019.33066292
scalar OsgEarthNet.uav[36] utilizationSecCharge 191261.26413991
scalar OsgEarthNet.uav[36] utilizationSecIdle 14522.009
scalar OsgEarthNet.uav[36] utilizationEnergyMission 164131.3098526
scalar OsgEarthNet.uav[36] utilizationEnergyMaintenance 91164.241294861
scalar OsgEarthNet.uav[36] utilizationEnergyCharge 252360.69458008
scalar OsgEarthNet.uav[36] utilizationEnergyOverdrawMission 0
scalar OsgEarthNet.uav[36] utilizationEnergyOverdrawMaintenance 0
scalar OsgEarthNet.uav[36] utilizationCountMissions 57
scalar OsgEarthNet.uav[36] utilizationCountManeuversMission 1008
scalar OsgEarthNet.uav[36] utilizationCountManeuversMaintenance 114
scalar OsgEarthNet.uav[36] utilizationCountChargeState 57
scalar OsgEarthNet.uav[36] utilizationCountOverdrawnAfterMission 0
scalar OsgEarthNet.uav[36] utilizationCountIdleState 38
scalar OsgEarthNet.uav[36] utilizationFail 0
scalar OsgEarthNet.uav[36] simulationTime 259200
scalar OsgEarthNet.uav[37] utilizationSecMission 31235.172734795
scalar OsgEarthNet.uav[37] utilizationSecMaintenance 17756.343285008
scalar OsgEarthNet.uav[37] utilizationSecCharge 185416.4809802
scalar OsgEarthNet.uav[37] utilizationSecIdle 24792.002
scalar OsgEarthNet.uav[37] utilizationEnergyMission 149981.49642181
scalar OsgEarthNet.uav[37] utilizationEnergyMaintenance 83984.886936188
scalar OsgEarthNet.uav[37] utilizationEnergyCharge 231596.82763672
scalar OsgEarthNet.uav[37] utilizationEnergyOverdrawMission 0
scalar OsgEarthNet.uav[37] utilizationEnergyOverdrawMaintenance 0
scalar OsgEarthNet.uav[37] utilizationCountMissions 58
scalar OsgEarthNet.uav[37] utilizationCountManeuversMission 878
scalar OsgEarthNet.uav[37] utilizationCountManeuversMaintenance 116
scalar OsgEarthNet.uav[37] utilizationCountChargeState 58
scalar OsgEarthNet.uav[37] utilizationCountOverdrawnAfterMission 0
scalar OsgEarthNet.uav[37] utilizationCountIdleState 57
scalar OsgEarthNet.uav[37] utilizationFail 0
scalar OsgEarthNet.uav[37] simulationTime 259200
scalar OsgEarthNet.uav[38] utilizationSecMission 35930.851047088
scalar OsgEarthNet.uav[38] utilizationSecMaintenance 13514.850681735
scalar OsgEarthNet.uav[38] utilizationSecCharge 181295.07765726
scalar OsgEarthNet.uav[38] utilizationSecIdle 28459.219613916
scalar OsgEarthNet.uav[38] utilizationEnergyMission 174089.70000458
scalar OsgEarthNet.uav[38] utilizationEnergyMaintenance 62885.481250763
scalar OsgEarthNet.uav[38] utilizationEnergyCharge 236413.98901367
scalar OsgEarthNet.uav[38] utilizationEnergyOverdrawMission 0
scalar OsgEarthNet.uav[38] utilizationEnergyOverdrawMaintenance 0
scalar OsgEarthNet.uav[38] utilizationCountMissions 51
scalar OsgEarthNet.uav[38] utilizationCountManeuversMission 1184
scalar OsgEarthNet.uav[38] utilizationCountManeuversMaintenance 102
scalar OsgEarthNet.uav[38] utilizationCountChargeState 51
scalar OsgEarthNet.uav[38] utilizationCountOverdrawnAfterMission 0
scalar OsgEarthNet.uav[38] utilizationCountIdleState 50
scalar OsgEarthNet.uav[38] utilizationFail 0
scalar OsgEarthNet.uav[38] simulationTime 259200
scalar OsgEarthNet.uav[39] utilizationSecMission 30067.967420669
scalar OsgEarthNet.uav[39] utilizationSecMaintenance 17712.297652123
scalar OsgEarthNet.uav[39] utilizationSecCharge 183806.96796187
scalar OsgEarthNet.uav[39] utilizationSecIdle 27612.765965339
scalar OsgEarthNet.uav[39] utilizationEnergyMission 144241.50380325
scalar OsgEarthNet.uav[39] utilizationEnergyMaintenance 85060.534683228
scalar OsgEarthNet.uav[39] utilizationEnergyCharge 226933.59057617
scalar OsgEarthNet.uav[39] utilizationEnergyOverdrawMission 0
scalar OsgEarthNet.uav[39] utilizationEnergyOverdrawMaintenance 0
scalar OsgEarthNet.uav[39] utilizationCountMissions 59
scalar OsgEarthNet.uav[39] utilizationCountManeuversMission 800
scalar OsgEarthNet.uav[39] utilizationCountManeuversMaintenance 118
scalar OsgEarthNet.uav[39] utilizationCountChargeState 59
scalar OsgEarthNet.uav[39] utilizationCountOverdrawnAfterMission 0
scalar OsgEarthNet.uav[39] utilizationCountIdleState 59
scalar OsgEarthNet.uav[39] utilizationFail 0
scalar OsgEarthNet.uav[39] simulationTime 259200
scalar OsgEarthNet.uav[40] utilizationSecMission 30428.741130182
scalar OsgEarthNet.uav[40] utilizationSecMaintenance 18074.118601557
scalar OsgEarthNet.uav[40] utilizationSecCharge 182320
scalar OsgEarthNet.uav[40] utilizationSecIdle 28377.139268261
scalar OsgEarthNet.uav[40] utilizationEnergyMission 147409.54331589
scalar OsgEarthNet.uav[40] utilizationEnergyMaintenance 85754.484933663
scalar OsgEarthNet.uav[40] utilizationEnergyCharge 229754.16772461
scalar OsgEarthNet.uav[40] utilizationEnergyOverdrawMission 0
scalar OsgEarthNet.uav[40] utilizationEnergyOverdrawMaintenance 0
scalar OsgEarthNet.uav[40] utilizationCountMissions 56
scalar OsgEarthNet.uav[40] utilizationCountManeuversMission 981
scalar OsgEarthNet.uav[40] utilizationCountManeuversMaintenance 112
scalar OsgEarthNet.uav[40] utilizationCountChargeState 55
scalar OsgEarthNet.uav[40] utilizationCountOverdrawnAfterMission 0
scalar OsgEarthNet.uav[40] utilizationCountIdleState 55
scalar OsgEarthNet.uav[40] utilizationFail 0
scalar OsgEarthNet.uav[40] simulationTime 259200
scalar OsgEarthNet.uav[41] utilizationSecMission 31110.716604978
scalar OsgEarthNet.uav[41] utilizationSecMaintenance 17541.883974042
scalar OsgEarthNet.uav[41] utilizationSecCharge 184403.59550755
scalar OsgEarthNet.uav[41] utilizationSecIdle 26143.802913431
scalar OsgEarthNet.uav[41] utilizationEnergyMission 149257.31295013
scalar OsgEarthNet.uav[41] utilizationEnergyMaintenance 83766.521995544
scalar OsgEarthNet.uav[41] utilizationEnergyCharge 230917.52172852
scalar OsgEarthNet.uav[41] utilizationEnergyOverdrawMission 0
scalar OsgEarthNet.uav[41] utilizationEnergyOverdrawMaintenance 0
scalar OsgEarthNet.uav[41] utilizationCountMissions 57
scalar OsgEarthNet.uav[41] utilizationCountManeuversMission 879
scalar OsgEarthNet.uav[41] utilizationCountManeuversMaintenance 114
scalar OsgEarthNet.uav[41] utilizationCountChargeState 57
scalar OsgEarthNet.uav[41] utilizationCountOverdrawnAfterMission 0
scalar OsgEarthNet.uav[41] utilizationCountIdleState 55
scalar OsgEarthNet.uav[41] utilizationFail 0
scalar OsgEarthNet.uav[41] simulationTime 259200
scalar OsgEarthNet.uav[42] utilizationSecMission 34055.475241242
scalar OsgEarthNet.uav[42] utilizationSecMaintenance 15400.135068095
scalar OsgEarthNet.uav[42] utilizationSecCharge 181798.03846984
scalar OsgEarthNet.uav[42] utilizationSecIdle 27946.350220821
scalar OsgEarthNet.uav[42] utilizationEnergyMission 166471.36939621
scalar OsgEarthNet.uav[42] utilizationEnergyMaintenance 72733.501358032
scalar OsgEarthNet.uav[42] utilizationEnergyCharge 236403.07885742
scalar OsgEarthNet.uav[42] utilizationEnergyOverdrawMission 0
scalar OsgEarthNet.uav[42] utilizationEnergyOverdrawMaintenance 0
scalar OsgEarthNet.uav[42] utilizationCountMissions 52
scalar OsgEarthNet.uav[42] utilizationCountManeuversMission 1199
scalar OsgEarthNet.uav[42] utilizationCountManeuversMaintenance 104
scalar OsgEarthNet.uav[42] utilizationCountChargeState 52
scalar OsgEarthNet.uav[42] utilizationCountOverdrawnAfterMission 0
scalar OsgEarthNet.uav[42] utilizationCountIdleState 51
scalar OsgEarthNet.uav[42] utilizationFail 0
scalar OsgEarthNet.uav[42] simulationTime 259200
scalar OsgEarthNet.uav[43] utilizationSecMission 31840.478630193
scalar OsgEarthNet.uav[43] utilizationSecMaintenance 21823.084779217
scalar OsgEarthNet.uav[43] utilizationSecCharge 191973.98771009
scalar OsgEarthNet.uav[43] utilizationSecIdle 13562.447880496
scalar OsgEarthNet.uav[43] utilizationEnergyMission 159187.75232315
scalar OsgEarthNet.uav[43] utilizationEnergyMaintenance 103471.91866302
scalar OsgEarthNet.uav[43] utilizationEnergyCharge 255319.35943604
scalar OsgEarthNet.uav[43] utilizationEnergyOverdrawMission 0
scalar OsgEarthNet.uav[43] utilizationEnergyOverdrawMaintenance 0
scalar OsgEarthNet.uav[43] utilizationCountMissions 58
scalar OsgEarthNet.uav[43] utilizationCountManeuversMission 1137
scalar OsgEarthNet.uav[43] utilizationCountManeuversMaintenance 116
scalar OsgEarthNet.uav[43] utilizationCountChargeState 58
scalar OsgEarthNet.uav[43] utilizationCountOverdrawnAfterMission 0
scalar OsgEarthNet.uav[43] utilizationCountIdleState 24
scalar OsgEarthNet.uav[43] utilizationFail 0
scalar OsgEarthNet.uav[43] simulationTime 259200
scalar OsgEarthNet.uav[44] utilizationSecMission 33977.007225117
scalar OsgEarthNet.uav[44] utilizationSecMaintenance 14867.044975983
scalar OsgEarthNet.uav[44] utilizationSecCharge 179470.50371021
scalar OsgEarthNet.uav[44] utilizationSecIdle 30885.443088691
scalar OsgEarthNet.uav[44] utilizationEnergyMission 166753.4585495
scalar OsgEarthNet.uav[44] utilizationEnergyMaintenance 68598.372180939
scalar OsgEarthNet.uav[44] utilizationEnergyCharge 233317.79125977
scalar OsgEarthNet.uav[44] utilizationEnergyOverdrawMission 0
scalar OsgEarthNet.uav[44] utilizationEnergyOverdrawMaintenance 0
scalar OsgEarthNet.uav[44] utilizationCountMissions 51
scalar OsgEarthNet.uav[44] utilizationCountManeuversMission 1069
scalar OsgEarthNet.uav[44] utilizationCountManeuversMaintenance 102
scalar OsgEarthNet.uav[44] utilizationCountChargeState 51
scalar OsgEarthNet.uav[44] utilizationCountOverdrawnAfterMission 0
scalar OsgEarthNet.uav[44] utilizationCountIdleState 51
scalar OsgEarthNet.uav[44] utilizationFail 0
scalar OsgEarthNet.uav[44] simulationTime 259200
scalar OsgEarthNet.uav[45] utilizationSecMission 35303.58963184
scalar OsgEarthNet.uav[45] utilizationSecMaintenance 14037.533794246
scalar OsgEarthNet.uav[45] utilizationSecCharge 181436.87257391
scalar OsgEarthNet.uav[45] utilizationSecIdle 28422.003
scalar OsgEarthNet.uav[45] utilizationEnergyMission 172350.07775116
scalar OsgEarthNet.uav[45] utilizationEnergyMaintenance 64334.242221832
scalar OsgEarthNet.uav[45] utilizationEnergyCharge 235365.86376953
scalar OsgEarthNet.uav[45] utilizationEnergyOverdrawMission 0
scalar OsgEarthNet.uav[45] utilizationEnergyOverdrawMaintenance 0
scalar OsgEarthNet.uav[45] utilizationCountMissions 51
scalar OsgEarthNet.uav[45] utilizationCountManeuversMission 1087
scalar OsgEarthNet.uav[45] utilizationCountManeuversMaintenance 102
scalar OsgEarthNet.uav[45] utilizationCountChargeState 51
scalar OsgEarthNet.uav[45] utilizationCountOverdrawnAfterMission 0
scalar OsgEarthNet.uav[45] utilizationCountIdleState 50
scalar OsgEarthNet.uav[45] utilizationFail 0
scalar OsgEarthNet.uav[45] simulationTime 259200
scalar OsgEarthNet.uav[46] utilizationSecMission 31112.342977305
scalar OsgEarthNet.uav[46] utilizationSecMaintenance 17008.861874946
scalar OsgEarthNet.uav[46] utilizationSecCharge 183314.3590718
scalar OsgEarthNet.uav[46] utilizationSecIdle 27764.435075947
scalar OsgEarthNet.uav[46] utilizationEnergyMission 149727.25725555
scalar OsgEarthNet.uav[46] utilizationEnergyMaintenance 80677.834636688
scalar OsgEarthNet.uav[46] utilizationEnergyCharge 231237.77539062
scalar OsgEarthNet.uav[46] utilizationEnergyOverdrawMission 0
scalar OsgEarthNet.uav[46] utilizationEnergyOverdrawMaintenance 0
scalar OsgEarthNet.uav[46] utilizationCountMissions 56
scalar OsgEarthNet.uav[46] utilizationCountManeuversMission 898
scalar OsgEarthNet.uav[46] utilizationCountManeuversMaintenance 112
scalar OsgEarthNet.uav[46] utilizationCountChargeState 56
scalar OsgEarthNet.uav[46] utilizationCountOverdrawnAfterMission 0
scalar OsgEarthNet.uav[46] utilizationCountIdleState 53
scalar OsgEarthNet.uav[46] utilizationFail 0
scalar OsgEarthNet.uav[46] simulationTime 259200
scalar OsgEarthNet.uav[47] utilizationSecMission 30530.219819192
scalar OsgEarthNet.uav[47] utilizationSecMaintenance 18377.903183328
scalar OsgEarthNet.uav[47] utilizationSecCharge 186920
scalar OsgEarthNet.uav[47] utilizationSecIdle 23371.87599748
scalar OsgEarthNet.uav[47] utilizationEnergyMission 147158.56451416
scalar OsgEarthNet.uav[47] utilizationEnergyMaintenance 86234.972923279
scalar OsgEarthNet.uav[47] utilizationEnergyCharge 233376.14086914
scalar OsgEarthNet.uav[47] utilizationEnergyOverdrawMission 0
scalar OsgEarthNet.uav[47] utilizationEnergyOverdrawMaintenance 0
scalar OsgEarthNet.uav[47] utilizationCountMissions 58
scalar OsgEarthNet.uav[47] utilizationCountManeuversMission 930
scalar OsgEarthNet.uav[47] utilizationCountManeuversMaintenance 116
scalar OsgEarthNet.uav[47] utilizationCountChargeState 58
scalar OsgEarthNet.uav[47] utilizationCountOverdrawnAfterMission 0
scalar OsgEarthNet.uav[47] utilizationCountIdleState 58
scalar OsgEarthNet.uav[47] utilizationFail 0
scalar OsgEarthNet.uav[47] simulationTime 259200
scalar OsgEarthNet.uav[48] utilizationSecMission 35206.062421227
scalar OsgEarthNet.uav[48] utilizationSecMaintenance 13948.13074993
scalar OsgEarthNet.uav[48] utilizationSecCharge 180753.80282884
scalar OsgEarthNet.uav[48] utilizationSecIdle 29292.003
scalar OsgEarthNet.uav[48] utilizationEnergyMission 169748.83110428
scalar OsgEarthNet.uav[48] utilizationEnergyMaintenance 65147.989505768
scalar OsgEarthNet.uav[48] utilizationEnergyCharge 235977.75146484
scalar OsgEarthNet.uav[48] utilizationEnergyOverdrawMission 0
scalar OsgEarthNet.uav[48] utilizationEnergyOverdrawMaintenance 0
scalar OsgEarthNet.uav[48] utilizationCountMissions 51
scalar OsgEarthNet.uav[48] utilizationCountManeuversMission 1038
scalar OsgEarthNet.uav[48] utilizationCountManeuversMaintenance 102
scalar OsgEarthNet.uav[48] utilizationCountChargeState 51
scalar OsgEarthNet.uav[48] utilizationCountOverdrawnAfterMission 0
scalar OsgEarthNet.uav[48] utilizationCountIdleState 49
scalar OsgEarthNet.uav[48] utilizationFail 0
scalar OsgEarthNet.uav[48] simulationTime 259200
scalar OsgEarthNet.uav[49] utilizationSecMission 32691.877899025
scalar OsgEarthNet.uav[49] utilizationSecMaintenance 21839.012488898
scalar OsgEarthNet.uav[49] utilizationSecCharge 193797.10361208
scalar OsgEarthNet.uav[49] utilizationSecIdle 10872.005
scalar OsgEarthNet.uav[49] utilizationEnergyMission 158936.32771301
scalar OsgEarthNet.uav[49] utilizationEnergyMaintenance 104187.50050354
scalar OsgEarthNet.uav[49] utilizationEnergyCharge 258022.49963379
scalar OsgEarthNet.uav[49] utilizationEnergyOverdrawMission 0
scalar OsgEarthNet.uav[49] utilizationEnergyOverdrawMaintenance 0
scalar OsgEarthNet.uav[49] utilizationCountMissions 58
scalar OsgEarthNet.uav[49] utilizationCountManeuversMission 1140
scalar OsgEarthNet.uav[49] utilizationCountManeuversMaintenance 116
scalar OsgEarthNet.uav[49] utilizationCountChargeState 58
scalar OsgEarthNet.uav[49] utilizationCountOverdrawnAfterMission 0
scalar OsgEarthNet.uav[49] utilizationCountIdleState 31
scalar OsgEarthNet.uav[49] utilizationFail 0
scalar OsgEarthNet.uav[49] simulationTime 259200
scalar OsgEarthNet.uav[50] utilizationSecMission 31575.675168627
scalar OsgEarthNet.uav[50] utilizationSecMaintenance 21632.313831373
scalar OsgEarthNet.uav[50] utilizationSecCharge 192810
scalar OsgEarthNet.uav[50] utilizationSecIdle 13182.01
scalar OsgEarthNet.uav[50] utilizationEnergyMission 153920.44447208
scalar OsgEarthNet.uav[50] utilizationEnergyMaintenance 102381.71705246
scalar OsgEarthNet.uav[50] utilizationEnergyCharge 255243.00830078
scalar OsgEarthNet.uav[50] utilizationEnergyOverdrawMission 0
scalar OsgEarthNet.uav[50] utilizationEnergyOverdrawMaintenance 0
scalar OsgEarthNet.uav[50] utilizationCountMissions 57
scalar OsgEarthNet.uav[50] utilizationCountManeuversMission 1132
scalar OsgEarthNet.uav[50] utilizationCountManeuversMaintenance 115
scalar OsgEarthNet.uav[50] utilizationCountChargeState 57
scalar OsgEarthNet.uav[50] utilizationCountOverdrawnAfterMission 0
scalar OsgEarthNet.uav[50] utilizationCountIdleState 29
scalar OsgEarthNet.uav[50] utilizationFail 0
scalar OsgEarthNet.uav[50] simulationTime 259200
scalar OsgEarthNet.uav[51] utilizationSecMission 31301.204917265
scalar OsgEarthNet.uav[51] utilizationSecMaintenance 17965.769263721
scalar OsgEarthNet.uav[51] utilizationSecCharge 186758.31911998
scalar OsgEarthNet.uav[51] utilizationSecIdle 23174.705699036
scalar OsgEarthNet.uav[51] utilizationEnergyMission 148921.29124069
scalar OsgEarthNet.uav[51] utilizationEnergyMaintenance 85484.049491882
scalar OsgEarthNet.uav[51] utilizationEnergyCharge 235206.65966797
scalar OsgEarthNet.uav[51] utilizationEnergyOverdrawMission 0
scalar OsgEarthNet.uav[51] utilizationEnergyOverdrawMaintenance 0
scalar OsgEarthNet.uav[51] utilizationCountMissions 57
scalar OsgEarthNet.uav[51] utilizationCountManeuversMission 917
scalar OsgEarthNet.uav[51] utilizationCountManeuversMaintenance 114
scalar OsgEarthNet.uav[51] utilizationCountChargeState 57
scalar OsgEarthNet.uav[51] utilizationCountOverdrawnAfterMission 0
scalar OsgEarthNet.uav[51] utilizationCountIdleState 55
scalar OsgEarthNet.uav[51] utilizationFail 0
scalar OsgEarthNet.uav[51] simulationTime 259200
scalar OsgEarthNet.uav[52] utilizationSecMission 33433.951879995
scalar OsgEarthNet.uav[52] utilizationSecMaintenance 16749.251793288
scalar OsgEarthNet.uav[52] utilizationSecCharge 183774.79332672
scalar OsgEarthNet.uav[52] utilizationSecIdle 25242.002
scalar OsgEarthNet.uav[52] utilizationEnergyMission 165221.50751114
scalar OsgEarthNet.uav[52] utilizationEnergyMaintenance 77288.133373261
scalar OsgEarthNet.uav[52] utilizationEnergyCharge 238267.79980469
scalar OsgEarthNet.uav[52] utilizationEnergyOverdrawMission 0
scalar OsgEarthNet.uav[52] utilizationEnergyOverdrawMaintenance 0
scalar OsgEarthNet.uav[52] utilizationCountMissions 53
scalar OsgEarthNet.uav[52] utilizationCountManeuversMission 1253
scalar OsgEarthNet.uav[52] utilizationCountManeuversMaintenance 106
scalar OsgEarthNet.uav[52] utilizationCountChargeState 53
scalar OsgEarthNet.uav[52] utilizationCountOverdrawnAfterMission 0
scalar OsgEarthNet.uav[52] utilizationCountIdleState 51
scalar OsgEarthNet.uav[52] utilizationFail 0
scalar OsgEarthNet.uav[52] simulationTime 259200
scalar OsgEarthNet.uav[53] utilizationSecMission 33333.753356766
scalar OsgEarthNet.uav[53] utilizationSecMaintenance 20619.439328913
scalar OsgEarthNet.uav[53] utilizationSecCharge 195244.80431432
scalar OsgEarthNet.uav[53] utilizationSecIdle 10002.002
scalar OsgEarthNet.uav[53] utilizationEnergyMission 161435.68451691
scalar OsgEarthNet.uav[53] utilizationEnergyMaintenance 98674.433921814
scalar OsgEarthNet.uav[53] utilizationEnergyCharge 259742.50244141
scalar OsgEarthNet.uav[53] utilizationEnergyOverdrawMission 0
scalar OsgEarthNet.uav[53] utilizationEnergyOverdrawMaintenance 0
scalar OsgEarthNet.uav[53] utilizationCountMissions 58
scalar OsgEarthNet.uav[53] utilizationCountManeuversMission 1094
scalar OsgEarthNet.uav[53] utilizationCountManeuversMaintenance 116
scalar OsgEarthNet.uav[53] utilizationCountChargeState 58
scalar OsgEarthNet.uav[53] utilizationCountOverdrawnAfterMission 0
scalar OsgEarthNet.uav[53] utilizationCountIdleState 31
scalar OsgEarthNet.uav[53] utilizationFail 0
scalar OsgEarthNet.uav[53] simulationTime 259200
scalar OsgEarthNet.uav[54] utilizationSecMission 33264.470477077
scalar OsgEarthNet.uav[54] utilizationSecMaintenance 16223.523522923
scalar OsgEarthNet.uav[54] utilizationSecCharge 183100
scalar OsgEarthNet.uav[54] utilizationSecIdle 26612.005
scalar OsgEarthNet.uav[54] utilizationEnergyMission 156558.8294538
scalar OsgEarthNet.uav[54] utilizationEnergyMaintenance 77439.872192383
scalar OsgEarthNet.uav[54] utilizationEnergyCharge 231068.19995117
scalar OsgEarthNet.uav[54] utilizationEnergyOverdrawMission 0
scalar OsgEarthNet.uav[54] utilizationEnergyOverdrawMaintenance 0
scalar OsgEarthNet.uav[54] utilizationCountMissions 56
scalar OsgEarthNet.uav[54] utilizationCountManeuversMission 816
scalar OsgEarthNet.uav[54] utilizationCountManeuversMaintenance 113
scalar OsgEarthNet.uav[54] utilizationCountChargeState 56
scalar OsgEarthNet.uav[54] utilizationCountOverdrawnAfterMission 0
scalar OsgEarthNet.uav[54] utilizationCountIdleState 53
scalar OsgEarthNet.uav[54] utilizationFail 0
scalar OsgEarthNet.uav[54] simulationTime 259200
scalar OsgEarthNet.uav[55] utilizationSecMission 36414.203414235
scalar OsgEarthNet.uav[55] utilizationSecMaintenance 13568.981873995
scalar OsgEarthNet.uav[55] utilizationSecCharge 179785.36075305
scalar OsgEarthNet.uav[55] utilizationSecIdle 29431.452958717
scalar OsgEarthNet.uav[55] utilizationEnergyMission 176034.93493652
scalar OsgEarthNet.uav[55] utilizationEnergyMaintenance 62459.770294189
scalar OsgEarthNet.uav[55] utilizationEnergyCharge 233727.32006836
scalar OsgEarthNet.uav[55] utilizationEnergyOverdrawMission 0
scalar OsgEarthNet.uav[55] utilizationEnergyOverdrawMaintenance 0
scalar OsgEarthNet.uav[55] utilizationCountMissions 51
scalar OsgEarthNet.uav[55] utilizationCountManeuversMission 925
scalar OsgEarthNet.uav[55] utilizationCountManeuversMaintenance 102
scalar OsgEarthNet.uav[55] utilizationCountChargeState 51
scalar OsgEarthNet.uav[55] utilizationCountOverdrawnAfterMission 0
scalar OsgEarthNet.uav[55] utilizationCountIdleState 51
scalar OsgEarthNet.uav[55] utilizationFail 0
scalar OsgEarthNet.uav[55] simulationTime 259200
scalar OsgEarthNet.uav[56] utilizationSecMission 32473.237279265
scalar OsgEarthNet.uav[56] utilizationSecMaintenance 20734.755720735
scalar OsgEarthNet.uav[56] utilizationSecCharge 193870
scalar OsgEarthNet.uav[56] utilizationSecIdle 12122.006
scalar OsgEarthNet.uav[56] utilizationEnergyMission 157394.96750641
scalar OsgEarthNet.uav[56] utilizationEnergyMaintenance 98627.801004263
scalar OsgEarthNet.uav[56] utilizationEnergyCharge 256688.21240234
scalar OsgEarthNet.uav[56] utilizationEnergyOverdrawMission 0
scalar OsgEarthNet.uav[56] utilizationEnergyOverdrawMaintenance 0
scalar OsgEarthNet.uav[56] utilizationCountMissions 57
scalar OsgEarthNet.uav[56] utilizationCountManeuversMission 1060
scalar OsgEarthNet.uav[56] utilizationCountManeuversMaintenance 115
scalar OsgEarthNet.uav[56] utilizationCountChargeState 57
scalar OsgEarthNet.uav[56] utilizationCountOverdrawnAfterMission 0
scalar OsgEarthNet.uav[56] utilizationCountIdleState 33
scalar OsgEarthNet.uav[56] utilizationFail 0
scalar OsgEarthNet.uav[56] simulationTime 259200
scalar OsgEarthNet.uav[57] utilizationSecMission 30619.524707042
scalar OsgEarthNet.uav[57] utilizationSecMaintenance 17907.031787871
scalar OsgEarthNet.uav[57] utilizationSecCharge 185990
scalar OsgEarthNet.uav[57] utilizationSecIdle 24683.442505087
scalar OsgEarthNet.uav[57] utilizationEnergyMission 144900.42378998
scalar OsgEarthNet.uav[57] utilizationEnergyMaintenance 85219.751304626
scalar OsgEarthNet.uav[57] utilizationEnergyCharge 232709.36108398
scalar OsgEarthNet.uav[57] utilizationEnergyOverdrawMission 0
scalar OsgEarthNet.uav[57] utilizationEnergyOverdrawMaintenance 0
scalar OsgEarthNet.uav[57] utilizationCountMissions 57
scalar OsgEarthNet.uav[57] utilizationCountManeuversMission 929
scalar OsgEarthNet.uav[57] utilizationCountManeuversMaintenance 114
scalar OsgEarthNet.uav[57] utilizationCountChargeState 57
scalar OsgEarthNet.uav[57] utilizationCountOverdrawnAfterMission 0
scalar OsgEarthNet.uav[57] utilizationCountIdleState 57
scalar OsgEarthNet.uav[57] utilizationFail 0
scalar OsgEarthNet.uav[57] simulationTime 259200
scalar OsgEarthNet.uav[58] utilizationSecMission 35804.866491094
scalar OsgEarthNet.uav[58] utilizationSecMaintenance 13876.284346909
scalar OsgEarthNet.uav[58] utilizationSecCharge 178840
scalar OsgEarthNet.uav[58] utilizationSecIdle 30678.848161997
scalar OsgEarthNet.uav[58] utilizationEnergyMission 174250.43279677
scalar OsgEarthNet.uav[58] utilizationEnergyMaintenance 63559.848941803
scalar OsgEarthNet.uav[58] utilizationEnergyCharge 232376.57519531
scalar OsgEarthNet.uav[58] utilizationEnergyOverdrawMission 0
scalar OsgEarthNet.uav[58] utilizationEnergyOverdrawMaintenance 0
scalar OsgEarthNet.uav[58] utilizationCountMissions 50
scalar OsgEarthNet.uav[58] utilizationCountManeuversMission 1097
scalar OsgEarthNet.uav[58] utilizationCountManeuversMaintenance 101
scalar OsgEarthNet.uav[58] utilizationCountChargeState 50
scalar OsgEarthNet.uav[58] utilizationCountOverdrawnAfterMission 0
scalar OsgEarthNet.uav[58] utilizationCountIdleState 50
scalar OsgEarthNet.uav[58] utilizationFail 0
scalar OsgEarthNet.uav[58] simulationTime 259200
scalar OsgEarthNet.uav[59] utilizationSecMission 33344.636548097
scalar OsgEarthNet.uav[59] utilizationSecMaintenance 20321.506695438
scalar OsgEarthNet.uav[59] utilizationSecCharge 192611.84875647
scalar OsgEarthNet.uav[59] utilizationSecIdle 12922.007
scalar OsgEarthNet.uav[59] utilizationEnergyMission 162111.1639061
scalar OsgEarthNet.uav[59] utilizationEnergyMaintenance 96391.502300262
scalar OsgEarthNet.uav[59] utilizationEnergyCharge 256214.85473633
scalar OsgEarthNet.uav[59] utilizationEnergyOverdrawMission 0
scalar OsgEarthNet.uav[59] utilizationEnergyOverdrawMaintenance 0
scalar OsgEarthNet.uav[59] utilizationCountMissions 57
scalar OsgEarthNet.uav[59] utilizationCountManeuversMission 1064
scalar OsgEarthNet.uav[59] utilizationCountManeuversMaintenance 114
scalar OsgEarthNet.uav[59] utilizationCountChargeState 57
scalar OsgEarthNet.uav[59] utilizationCountOverdrawnAfterMission 0
scalar OsgEarthNet.uav[59] utilizationCountIdleState 34
scalar OsgEarthNet.uav[59] utilizationFail 0
scalar OsgEarthNet.uav[59] simulationTime 259200
scalar OsgEarthNet.uav[60] utilizationSecMission 31919.560099489
scalar OsgEarthNet.uav[60] utilizationSecMaintenance 17840.861973556
scalar OsgEarthNet.uav[60] utilizationSecCharge 187677.57692696
scalar OsgEarthNet.uav[60] utilizationSecIdle 21762
scalar OsgEarthNet.uav[60] utilizationEnergyMission 152375.76430893
scalar OsgEarthNet.uav[60] utilizationEnergyMaintenance 85075.141929626
scalar OsgEarthNet.uav[60] utilizationEnergyCharge 235959.97949219
scalar OsgEarthNet.uav[60] utilizationEnergyOverdrawMission 0
scalar OsgEarthNet.uav[60] utilizationEnergyOverdrawMaintenance 0
scalar OsgEarthNet.uav[60] utilizationCountMissions 58
scalar OsgEarthNet.uav[60] utilizationCountManeuversMission 853
scalar OsgEarthNet.uav[60] utilizationCountManeuversMaintenance 116
scalar OsgEarthNet.uav[60] utilizationCountChargeState 58
scalar OsgEarthNet.uav[60] utilizationCountOverdrawnAfterMission 0
scalar OsgEarthNet.uav[60] utilizationCountIdleState 55
scalar OsgEarthNet.uav[60] utilizationFail 0
scalar OsgEarthNet.uav[60] simulationTime 259200
scalar OsgEarthNet.uav[61] utilizationSecMission 34048.309161398
scalar OsgEarthNet.uav[61] utilizationSecMaintenance 14720.736056647
scalar OsgEarthNet.uav[61] utilizationSecCharge 180095.50969326
scalar OsgEarthNet.uav[61] utilizationSecIdle 30335.444088691
scalar OsgEarthNet.uav[61] utilizationEnergyMission 169095.93305969
scalar OsgEarthNet.uav[61] utilizationEnergyMaintenance 68825.95621109
scalar OsgEarthNet.uav[61] utilizationEnergyCharge 234285.64794922
scalar OsgEarthNet.uav[61] utilizationEnergyOverdrawMission 0
scalar OsgEarthNet.uav[61] utilizationEnergyOverdrawMaintenance 0
scalar OsgEarthNet.uav[61] utilizationCountMissions 51
scalar OsgEarthNet.uav[61] utilizationCountManeuversMission 1179
scalar OsgEarthNet.uav[61] utilizationCountManeuversMaintenance 102
scalar OsgEarthNet.uav[61] utilizationCountChargeState 51
scalar OsgEarthNet.uav[61] utilizationCountOverdrawnAfterMission 0
scalar OsgEarthNet.uav[61] utilizationCountIdleState 51
scalar OsgEarthNet.uav[61] utilizationFail 0
scalar OsgEarthNet.uav[61] simulationTime 259200
scalar OsgEarthNet.uav[62] utilizationSecMission 35952.267660468
scalar OsgEarthNet.uav[62] utilizationSecMaintenance 13486.093969078
scalar OsgEarthNet.uav[62] utilizationSecCharge 179382.00628979
scalar OsgEarthNet.uav[62] utilizationSecIdle 30379.631080665
scalar OsgEarthNet.uav[62] utilizationEnergyMission 172557.09773254
scalar OsgEarthNet.uav[62] utilizationEnergyMaintenance 63125.839801788
scalar OsgEarthNet.uav[62] utilizationEnergyCharge 233050.99829102
scalar OsgEarthNet.uav[62] utilizationEnergyOverdrawMission 0
scalar OsgEarthNet.uav[62] utilizationEnergyOverdrawMaintenance 0
scalar OsgEarthNet.uav[62] utilizationCountMissions 51
scalar OsgEarthNet.uav[62] utilizationCountManeuversMission 961
scalar OsgEarthNet.uav[62] utilizationCountManeuversMaintenance 102
scalar OsgEarthNet.uav[62] utilizationCountChargeState 51
scalar OsgEarthNet.uav[62] utilizationCountOverdrawnAfterMission 0
scalar OsgEarthNet.uav[62] utilizationCountIdleState 51
scalar OsgEarthNet.uav[62] utilizationFail 0
scalar OsgEarthNet.uav[62] simulationTime 259200
scalar OsgEarthNet.uav[63] utilizationSecMission 36094.032281311
scalar OsgEarthNet.uav[63] utilizationSecMaintenance 13647.626922418
scalar OsgEarthNet.uav[63] utilizationSecCharge 181070
scalar OsgEarthNet.uav[63] utilizationSecIdle 28388.339796271
scalar OsgEarthNet.uav[63] utilizationEnergyMission 173563.71430969
scalar OsgEarthNet.uav[63] utilizationEnergyMaintenance 62387.030521393
scalar OsgEarthNet.uav[63] utilizationEnergyCharge 235705.34667969
scalar OsgEarthNet.uav[63] utilizationEnergyOverdrawMission 0
scalar OsgEarthNet.uav[63] utilizationEnergyOverdrawMaintenance 0
scalar OsgEarthNet.uav[63] utilizationCountMissions 51
scalar OsgEarthNet.uav[63] utilizationCountManeuversMission 1094
scalar OsgEarthNet.uav[63] utilizationCountManeuversMaintenance 101
scalar OsgEarthNet.uav[63] utilizationCountChargeState 51
scalar OsgEarthNet.uav[63] utilizationCountOverdrawnAfterMission 0
scalar OsgEarthNet.uav[63] utilizationCountIdleState 51
scalar OsgEarthNet.uav[63] utilizationFail 0
scalar OsgEarthNet.uav[63] simulationTime 259200
scalar OsgEarthNet.uav[64] utilizationSecMission 31543.774036997
scalar OsgEarthNet.uav[64] utilizationSecMaintenance 18064.255965639
scalar OsgEarthNet.uav[64] utilizationSecCharge 185853.61539449
scalar OsgEarthNet.uav[64] utilizationSecIdle 23738.353602879
scalar OsgEarthNet.uav[64] utilizationEnergyMission 153696.43019867
scalar OsgEarthNet.uav[64] utilizationEnergyMaintenance 85521.509483337
scalar OsgEarthNet.uav[64] utilizationEnergyCharge 234967.04571533
scalar OsgEarthNet.uav[64] utilizationEnergyOverdrawMission 0
scalar OsgEarthNet.uav[64] utilizationEnergyOverdrawMaintenance 0
scalar OsgEarthNet.uav[64] utilizationCountMissions 57
scalar OsgEarthNet.uav[64] utilizationCountManeuversMission 991
scalar OsgEarthNet.uav[64] utilizationCountManeuversMaintenance 114
scalar OsgEarthNet.uav[64] utilizationCountChargeState 57
scalar OsgEarthNet.uav[64] utilizationCountOverdrawnAfterMission 0
scalar OsgEarthNet.uav[64] utilizationCountIdleState 53
scalar OsgEarthNet.uav[64] utilizationFail 0
scalar OsgEarthNet.uav[64] simulationTime 259200
scalar OsgEarthNet.uav[65] utilizationSecMission 34534.953425229
scalar OsgEarthNet.uav[65] utilizationSecMaintenance 14804.221704541
scalar OsgEarthNet.uav[65] utilizationSecCharge 183208.82187023
scalar OsgEarthNet.uav[65] utilizationSecIdle 26652.002
scalar OsgEarthNet.uav[65] utilizationEnergyMission 169959.55172729
scalar OsgEarthNet.uav[65] utilizationEnergyMaintenance 67622.560546875
scalar OsgEarthNet.uav[65] utilizationEnergyCharge 238147.91845703
scalar OsgEarthNet.uav[65] utilizationEnergyOverdrawMission 0
scalar OsgEarthNet.uav[65] utilizationEnergyOverdrawMaintenance 0
scalar OsgEarthNet.uav[65] utilizationCountMissions 52
scalar OsgEarthNet.uav[65] utilizationCountManeuversMission 1272
scalar OsgEarthNet.uav[65] utilizationCountManeuversMaintenance 104
scalar OsgEarthNet.uav[65] utilizationCountChargeState 52
scalar OsgEarthNet.uav[65] utilizationCountOverdrawnAfterMission 0
scalar OsgEarthNet.uav[65] utilizationCountIdleState 50
scalar OsgEarthNet.uav[65] utilizationFail 0
scalar OsgEarthNet.uav[65] simulationTime 259200
scalar OsgEarthNet.uav[66] utilizationSecMission 32131.361821524
scalar OsgEarthNet.uav[66] utilizationSecMaintenance 21710.461844476
scalar OsgEarthNet.uav[66] utilizationSecCharge 195396.174334
scalar OsgEarthNet.uav[66] utilizationSecIdle 9962.001
scalar OsgEarthNet.uav[66] utilizationEnergyMission 157151.30153656
scalar OsgEarthNet.uav[66] utilizationEnergyMaintenance 103368.58165741
scalar OsgEarthNet.uav[66] utilizationEnergyCharge 259750.41210938
scalar OsgEarthNet.uav[66] utilizationEnergyOverdrawMission 0
scalar OsgEarthNet.uav[66] utilizationEnergyOverdrawMaintenance 0
scalar OsgEarthNet.uav[66] utilizationCountMissions 58
scalar OsgEarthNet.uav[66] utilizationCountManeuversMission 1121
scalar OsgEarthNet.uav[66] utilizationCountManeuversMaintenance 116
scalar OsgEarthNet.uav[66] utilizationCountChargeState 58
scalar OsgEarthNet.uav[66] utilizationCountOverdrawnAfterMission 0
scalar OsgEarthNet.uav[66] utilizationCountIdleState 30
scalar OsgEarthNet.uav[66] utilizationFail 0
scalar OsgEarthNet.uav[66] simulationTime 259200
scalar OsgEarthNet.uav[67] utilizationSecMission 30809.381229357
scalar OsgEarthNet.uav[67] utilizationSecMaintenance 17638.328704327
scalar OsgEarthNet.uav[67] utilizationSecCharge 183104.97298449
scalar OsgEarthNet.uav[67] utilizationSecIdle 27647.316081831
scalar OsgEarthNet.uav[67] utilizationEnergyMission 147476.43026733
scalar OsgEarthNet.uav[67] utilizationEnergyMaintenance 83236.251480102
scalar OsgEarthNet.uav[67] utilizationEnergyCharge 226179.33337402
scalar OsgEarthNet.uav[67] utilizationEnergyOverdrawMission 0
scalar OsgEarthNet.uav[67] utilizationEnergyOverdrawMaintenance 0
scalar OsgEarthNet.uav[67] utilizationCountMissions 59
scalar OsgEarthNet.uav[67] utilizationCountManeuversMission 812
scalar OsgEarthNet.uav[67] utilizationCountManeuversMaintenance 118
scalar OsgEarthNet.uav[67] utilizationCountChargeState 59
scalar OsgEarthNet.uav[67] utilizationCountOverdrawnAfterMission 0
scalar OsgEarthNet.uav[67] utilizationCountIdleState 57
scalar OsgEarthNet.uav[67] utilizationFail 0
scalar OsgEarthNet.uav[67] simulationTime 259200
scalar OsgEarthNet.uav[68] utilizationSecMission 34937.986156938
scalar OsgEarthNet.uav[68] utilizationSecMaintenance 15099.147623288
scalar OsgEarthNet.uav[68] utilizationSecCharge 180795.41495574
scalar OsgEarthNet.uav[68] utilizationSecIdle 28367.450264031
scalar OsgEarthNet.uav[68] utilizationEnergyMission 170782.55184937
scalar OsgEarthNet.uav[68] utilizationEnergyMaintenance 69525.141124725
scalar OsgEarthNet.uav[68] utilizationEnergyCharge 234793.19799805
scalar OsgEarthNet.uav[68] utilizationEnergyOverdrawMission 0
scalar OsgEarthNet.uav[68] utilizationEnergyOverdrawMaintenance 0
scalar OsgEarthNet.uav[68] utilizationCountMissions 52
scalar OsgEarthNet.uav[68] utilizationCountManeuversMission 1171
scalar OsgEarthNet.uav[68] utilizationCountManeuversMaintenance 104
scalar OsgEarthNet.uav[68] utilizationCountChargeState 52
scalar OsgEarthNet.uav[68] utilizationCountOverdrawnAfterMission 0
scalar OsgEarthNet.uav[68] utilizationCountIdleState 51
scalar OsgEarthNet.uav[68] utilizationFail 0
scalar OsgEarthNet.uav[68] simulationTime 259200
scalar OsgEarthNet.uav[69] utilizationSecMission 33214.378509346
scalar OsgEarthNet.uav[69] utilizationSecMaintenance 20267.251435434
scalar OsgEarthNet.uav[69] utilizationSecCharge 193427.17348515
scalar OsgEarthNet.uav[69] utilizationSecIdle 12291.195570073
scalar OsgEarthNet.uav[69] utilizationEnergyMission 161528.24065781
scalar OsgEarthNet.uav[69] utilizationEnergyMaintenance 96177.296733856
scalar OsgEarthNet.uav[69] utilizationEnergyCharge 255821.59277344
scalar OsgEarthNet.uav[69] utilizationEnergyOverdrawMission 0
scalar OsgEarthNet.uav[69] utilizationEnergyOverdrawMaintenance 0
scalar OsgEarthNet.uav[69] utilizationCountMissions 57
scalar OsgEarthNet.uav[69] utilizationCountManeuversMission 1062
scalar OsgEarthNet.uav[69] utilizationCountManeuversMaintenance 114
scalar OsgEarthNet.uav[69] utilizationCountChargeState 57
scalar OsgEarthNet.uav[69] utilizationCountOverdrawnAfterMission 0
scalar OsgEarthNet.uav[69] utilizationCountIdleState 35
scalar OsgEarthNet.uav[69] utilizationFail 0
scalar OsgEarthNet.uav[69] simulationTime 259200
scalar OsgEarthNet.cs[0] usedPower 3998889.5285138
scalar OsgEarthNet.cs[0] chargedPower 3998889.5285138
scalar OsgEarthNet.cs[0] chargedMobileNodes 486
scalar OsgEarthNet.cs[0] reservations 893
scalar OsgEarthNet.cs[1] usedPower 5722658.7521015
scalar OsgEarthNet.cs[1] chargedPower 5722658.7521015
scalar OsgEarthNet.cs[1] chargedMobileNodes 1356
scalar OsgEarthNet.cs[1] reservations 1419
scalar OsgEarthNet.cs[2] usedPower 6965117.9895963
scalar OsgEarthNet.cs[2] chargedPower 6965117.9895963
scalar OsgEarthNet.cs[2] chargedMobileNodes 1476
scalar OsgEarthNet.cs[2] reservations 1519

