version 2
run Szenario_Hotel_Gabelbach-231-20180712-07:05:36-16864
attr configname Szenario_Hotel_Gabelbach
attr datetime 20180712-07:05:36
attr experiment Szenario_Hotel_Gabelbach
attr inifile omnetpp.ini
attr iterationvars "$replM=2, $biWeight=0.35, $replSearchM=1, $numUAVs=150"
attr iterationvarsf replM=2,biWeight=0.35,replSearchM=1,numUAVs=150-
attr measurement "$replM=2, $biWeight=0.35, $replSearchM=1, $numUAVs=150"
attr network OsgEarthNet
attr processid 16864
attr repetition 3
attr replication #3
attr resultdir results
attr runnumber 231
attr seedset 231
itervar biWeight 0.35
itervar numUAVs 150
itervar replM 2
itervar replSearchM 1
param *.osgEarthScene.scene "\"Szenario_Hotel_Gabelbach.earth\""
param *.playgroundLatitude 50.6830269
param *.playgroundLongitude 10.8538055
param *.playgroundWidth 3500m
param *.playgroundHeight 3500m
param *.cs[0].posX 3537m
param *.cs[0].posY 965m
param *.cs[0].posZ 538m
param *.cs[1].posX 312m
param *.cs[1].posY 1262m
param *.cs[1].posZ 539m
param *.cs[2].posX 2185m
param *.cs[2].posY 3026m
param *.cs[2].posZ 777m
param *.cs[3].posX 10m
param *.cs[3].posY 2200m
param *.cs[3].posZ 560m
param *.cs[4].posX 750m
param *.cs[4].posY 200m
param *.cs[4].posZ 540m
param *.cs[5].posX 2450m
param *.cs[5].posY 180m
param *.cs[5].posZ 524m
param *.cs[6].posX 3140m
param *.cs[6].posY 1790m
param *.cs[6].posZ 606m
param *.numCSs 3
param *.uav[*].replacementMethod 2
param *.uav[*].weightedSumWeight 0.35
param *.missionControl.replacementSearchMethod 1
param *.numUAVs 150
param *.numCSs 3
param *.numUAVs 100
param *.*.timeStep 10s
param *.uav[*].commandPreviewCommandCount 20
param *.missionControl.missionFiles "\"missions\\\\Szenario_WB_Hotel_Gabelbach_Mission_Hotel.waypoints,missions\\\\Szenario_WB_Hotel_Gabelbach_Mission_Kickelhahn.waypoints,missions\\\\Szenario_WB_Hotel_Gabelbach_Mission_Ilmenau_Sportplatz.waypoints,missions\\\\Szenario_WB_Hotel_Gabelbach_Mission_Manebach_Mitte.waypoints,missions\\\\Szenario_WB_Hotel_Gabelbach_Mission_Manebach_Sued.waypoints,missions\\\\Szenario_WB_Hotel_Gabelbach_Hover_HoheSchlaufe.waypoints,missions\\\\Szenario_WB_Hotel_Gabelbach_Hover_Kickelhahn.waypoints,missions\\\\Szenario_WB_Hotel_Gabelbach_Hover_Gabelbachskopf.waypoints,missions\\\\Szenario_WB_Hotel_Gabelbach_Hover_Dachskopf.waypoints\""
param *.uav[0].startX 3537m
param *.uav[0].startY 965m
param *.uav[0].startZ 539m
param *.uav[1].startX 312m
param *.uav[1].startY 1262m
param *.uav[1].startZ 540m
param *.uav[2].startX 2185m
param *.uav[2].startY 3026m
param *.uav[2].startZ 778m
param *.uav[3].startX 3537m
param *.uav[3].startY 965m
param *.uav[3].startZ 539m
param *.uav[4].startX 312m
param *.uav[4].startY 1262m
param *.uav[4].startZ 540m
param *.uav[5].startX 2185m
param *.uav[5].startY 3026m
param *.uav[5].startZ 778m
param *.uav[6].startX 3537m
param *.uav[6].startY 965m
param *.uav[6].startZ 539m
param *.uav[7].startX 312m
param *.uav[7].startY 1262m
param *.uav[7].startZ 540m
param *.uav[8].startX 2185m
param *.uav[8].startY 3026m
param *.uav[8].startZ 778m
param *.uav[9].startX 3537m
param *.uav[9].startY 965m
param *.uav[9].startZ 539m
param *.uav[10].startX 3537m
param *.uav[10].startY 965m
param *.uav[10].startZ 539m
param *.uav[11].startX 312m
param *.uav[11].startY 1262m
param *.uav[11].startZ 540m
param *.uav[12].startX 2185m
param *.uav[12].startY 3026m
param *.uav[12].startZ 778m
param *.uav[13].startX 3537m
param *.uav[13].startY 965m
param *.uav[13].startZ 539m
param *.uav[14].startX 312m
param *.uav[14].startY 1262m
param *.uav[14].startZ 540m
param *.uav[15].startX 2185m
param *.uav[15].startY 3026m
param *.uav[15].startZ 778m
param *.uav[16].startX 3537m
param *.uav[16].startY 965m
param *.uav[16].startZ 539m
param *.uav[17].startX 312m
param *.uav[17].startY 1262m
param *.uav[17].startZ 540m
param *.uav[18].startX 2185m
param *.uav[18].startY 3026m
param *.uav[18].startZ 778m
param *.uav[19].startX 3537m
param *.uav[19].startY 965m
param *.uav[19].startZ 539m
param *.uav[20].startX 3537m
param *.uav[20].startY 965m
param *.uav[20].startZ 539m
param *.uav[21].startX 312m
param *.uav[21].startY 1262m
param *.uav[21].startZ 540m
param *.uav[22].startX 2185m
param *.uav[22].startY 3026m
param *.uav[22].startZ 778m
param *.uav[23].startX 3537m
param *.uav[23].startY 965m
param *.uav[23].startZ 539m
param *.uav[24].startX 312m
param *.uav[24].startY 1262m
param *.uav[24].startZ 540m
param *.uav[25].startX 2185m
param *.uav[25].startY 3026m
param *.uav[25].startZ 778m
param *.uav[26].startX 3537m
param *.uav[26].startY 965m
param *.uav[26].startZ 539m
param *.uav[27].startX 312m
param *.uav[27].startY 1262m
param *.uav[27].startZ 540m
param *.uav[28].startX 2185m
param *.uav[28].startY 3026m
param *.uav[28].startZ 778m
param *.uav[29].startX 3537m
param *.uav[29].startY 965m
param *.uav[29].startZ 539m
param *.uav[30].startX 3537m
param *.uav[30].startY 965m
param *.uav[30].startZ 539m
param *.uav[31].startX 312m
param *.uav[31].startY 1262m
param *.uav[31].startZ 540m
param *.uav[32].startX 2185m
param *.uav[32].startY 3026m
param *.uav[32].startZ 778m
param *.uav[33].startX 3537m
param *.uav[33].startY 965m
param *.uav[33].startZ 539m
param *.uav[34].startX 312m
param *.uav[34].startY 1262m
param *.uav[34].startZ 540m
param *.uav[35].startX 2185m
param *.uav[35].startY 3026m
param *.uav[35].startZ 778m
param *.uav[36].startX 3537m
param *.uav[36].startY 965m
param *.uav[36].startZ 539m
param *.uav[37].startX 312m
param *.uav[37].startY 1262m
param *.uav[37].startZ 540m
param *.uav[38].startX 2185m
param *.uav[38].startY 3026m
param *.uav[38].startZ 778m
param *.uav[39].startX 3537m
param *.uav[39].startY 965m
param *.uav[39].startZ 539m
param *.uav[40].startX 3537m
param *.uav[40].startY 965m
param *.uav[40].startZ 539m
param *.uav[41].startX 312m
param *.uav[41].startY 1262m
param *.uav[41].startZ 540m
param *.uav[42].startX 2185m
param *.uav[42].startY 3026m
param *.uav[42].startZ 778m
param *.uav[43].startX 3537m
param *.uav[43].startY 965m
param *.uav[43].startZ 539m
param *.uav[44].startX 312m
param *.uav[44].startY 1262m
param *.uav[44].startZ 540m
param *.uav[45].startX 2185m
param *.uav[45].startY 3026m
param *.uav[45].startZ 778m
param *.uav[46].startX 3537m
param *.uav[46].startY 965m
param *.uav[46].startZ 539m
param *.uav[47].startX 312m
param *.uav[47].startY 1262m
param *.uav[47].startZ 540m
param *.uav[48].startX 2185m
param *.uav[48].startY 3026m
param *.uav[48].startZ 778m
param *.uav[49].startX 3537m
param *.uav[49].startY 965m
param *.uav[49].startZ 539m
param *.uav[50].startX 3537m
param *.uav[50].startY 965m
param *.uav[50].startZ 539m
param *.uav[51].startX 312m
param *.uav[51].startY 1262m
param *.uav[51].startZ 540m
param *.uav[52].startX 2185m
param *.uav[52].startY 3026m
param *.uav[52].startZ 778m
param *.uav[53].startX 3537m
param *.uav[53].startY 965m
param *.uav[53].startZ 539m
param *.uav[54].startX 312m
param *.uav[54].startY 1262m
param *.uav[54].startZ 540m
param *.uav[55].startX 2185m
param *.uav[55].startY 3026m
param *.uav[55].startZ 778m
param *.uav[56].startX 3537m
param *.uav[56].startY 965m
param *.uav[56].startZ 539m
param *.uav[57].startX 312m
param *.uav[57].startY 1262m
param *.uav[57].startZ 540m
param *.uav[58].startX 2185m
param *.uav[58].startY 3026m
param *.uav[58].startZ 778m
param *.uav[59].startX 3537m
param *.uav[59].startY 965m
param *.uav[59].startZ 539m
param *.uav[60].startX 3537m
param *.uav[60].startY 965m
param *.uav[60].startZ 539m
param *.uav[61].startX 312m
param *.uav[61].startY 1262m
param *.uav[61].startZ 540m
param *.uav[62].startX 2185m
param *.uav[62].startY 3026m
param *.uav[62].startZ 778m
param *.uav[63].startX 3537m
param *.uav[63].startY 965m
param *.uav[63].startZ 539m
param *.uav[64].startX 312m
param *.uav[64].startY 1262m
param *.uav[64].startZ 540m
param *.uav[65].startX 2185m
param *.uav[65].startY 3026m
param *.uav[65].startZ 778m
param *.uav[66].startX 3537m
param *.uav[66].startY 965m
param *.uav[66].startZ 539m
param *.uav[67].startX 312m
param *.uav[67].startY 1262m
param *.uav[67].startZ 540m
param *.uav[68].startX 2185m
param *.uav[68].startY 3026m
param *.uav[68].startZ 778m
param *.uav[69].startX 3537m
param *.uav[69].startY 965m
param *.uav[69].startZ 539m
param *.uav[70].startX 3537m
param *.uav[70].startY 965m
param *.uav[70].startZ 539m
param *.uav[71].startX 312m
param *.uav[71].startY 1262m
param *.uav[71].startZ 540m
param *.uav[72].startX 2185m
param *.uav[72].startY 3026m
param *.uav[72].startZ 778m
param *.uav[73].startX 3537m
param *.uav[73].startY 965m
param *.uav[73].startZ 539m
param *.uav[74].startX 312m
param *.uav[74].startY 1262m
param *.uav[74].startZ 540m
param *.uav[75].startX 2185m
param *.uav[75].startY 3026m
param *.uav[75].startZ 778m
param *.uav[76].startX 3537m
param *.uav[76].startY 965m
param *.uav[76].startZ 539m
param *.uav[77].startX 312m
param *.uav[77].startY 1262m
param *.uav[77].startZ 540m
param *.uav[78].startX 2185m
param *.uav[78].startY 3026m
param *.uav[78].startZ 778m
param *.uav[79].startX 3537m
param *.uav[79].startY 965m
param *.uav[79].startZ 539m
param *.uav[80].startX 3537m
param *.uav[80].startY 965m
param *.uav[80].startZ 539m
param *.uav[81].startX 312m
param *.uav[81].startY 1262m
param *.uav[81].startZ 540m
param *.uav[82].startX 2185m
param *.uav[82].startY 3026m
param *.uav[82].startZ 778m
param *.uav[83].startX 3537m
param *.uav[83].startY 965m
param *.uav[83].startZ 539m
param *.uav[84].startX 312m
param *.uav[84].startY 1262m
param *.uav[84].startZ 540m
param *.uav[85].startX 2185m
param *.uav[85].startY 3026m
param *.uav[85].startZ 778m
param *.uav[86].startX 3537m
param *.uav[86].startY 965m
param *.uav[86].startZ 539m
param *.uav[87].startX 312m
param *.uav[87].startY 1262m
param *.uav[87].startZ 540m
param *.uav[88].startX 2185m
param *.uav[88].startY 3026m
param *.uav[88].startZ 778m
param *.uav[89].startX 3537m
param *.uav[89].startY 965m
param *.uav[89].startZ 539m
param *.uav[90].startX 3537m
param *.uav[90].startY 965m
param *.uav[90].startZ 539m
param *.uav[91].startX 312m
param *.uav[91].startY 1262m
param *.uav[91].startZ 540m
param *.uav[92].startX 2185m
param *.uav[92].startY 3026m
param *.uav[92].startZ 778m
param *.uav[93].startX 3537m
param *.uav[93].startY 965m
param *.uav[93].startZ 539m
param *.uav[94].startX 312m
param *.uav[94].startY 1262m
param *.uav[94].startZ 540m
param *.uav[95].startX 2185m
param *.uav[95].startY 3026m
param *.uav[95].startZ 778m
param *.uav[96].startX 3537m
param *.uav[96].startY 965m
param *.uav[96].startZ 539m
param *.uav[97].startX 312m
param *.uav[97].startY 1262m
param *.uav[97].startZ 540m
param *.uav[98].startX 2185m
param *.uav[98].startY 3026m
param *.uav[98].startZ 778m
param *.uav[99].startX 3537m
param *.uav[99].startY 965m
param *.uav[99].startZ 539m
param *.osgEarthScene.scene "\"boston.earth\""
param *.playgroundLatitude 42.3558
param *.playgroundLongitude -71.0677
param *.playgroundWidth 400m
param *.playgroundHeight 200m
param *.channelController.connectionColor "\"#0000FF40\""
param *.channelController.showConnections false
param *.uav[*].modelURL "\"quadrocopter.small.obj.15.scale.0,0,90.rot\""
param *.uav[*].labelColor "\"#FF7C00CC\""
param *.uav[*].label2Color "\"#FF7C00EE\""
param *.uav[*].batteryCapacity 5200mAh
param *.uav[*].batteryRemaining uav[index].batteryCapacity
param *.uav[*].predictionQuantile 0.95
param *.uav[*].replacementMethod 2
param *.uav[*].weightedSumWeight 0.5
param *.cs[*].modelURL "\"chargingstation_v1.osgt.2.scale.0,0,0.rot.0,0,-15e-1.trans\""
param *.cs[*].spotsWaiting 999
param *.cs[*].spotsCharging 999
param *.cs[*].chargeEffectivenessPercentage 100
param *.cs[*].nonLinearPhaseStartPercentage 85
param *.cs[*].chargeCurrent 6.0A
param *.cs[*].prioritizeFastCharge true
param *.missionControl.replacementSearchMethod 0
param *.*.timeStep 9s

scalar OsgEarthNet.uav[0] utilizationSecMission 520
scalar OsgEarthNet.uav[0] utilizationSecMaintenance 447.1303002674
scalar OsgEarthNet.uav[0] utilizationSecCharge 3470
scalar OsgEarthNet.uav[0] utilizationSecIdle 254762.86869973
scalar OsgEarthNet.uav[0] utilizationEnergyMission 2814.6921577454
scalar OsgEarthNet.uav[0] utilizationEnergyMaintenance 2030.6057243347
scalar OsgEarthNet.uav[0] utilizationEnergyCharge 4440.3149414062
scalar OsgEarthNet.uav[0] utilizationEnergyOverdrawMission 0
scalar OsgEarthNet.uav[0] utilizationEnergyOverdrawMaintenance 0
scalar OsgEarthNet.uav[0] utilizationCountMissions 1
scalar OsgEarthNet.uav[0] utilizationCountManeuversMission 26
scalar OsgEarthNet.uav[0] utilizationCountManeuversMaintenance 2
scalar OsgEarthNet.uav[0] utilizationCountChargeState 1
scalar OsgEarthNet.uav[0] utilizationCountOverdrawnAfterMission 0
scalar OsgEarthNet.uav[0] utilizationCountIdleState 2
scalar OsgEarthNet.uav[0] utilizationFail 0
scalar OsgEarthNet.uav[0] simulationTime 259200
scalar OsgEarthNet.uav[1] utilizationSecMission 540
scalar OsgEarthNet.uav[1] utilizationSecMaintenance 395.21104267299
scalar OsgEarthNet.uav[1] utilizationSecCharge 3410
scalar OsgEarthNet.uav[1] utilizationSecIdle 254854.78795733
scalar OsgEarthNet.uav[1] utilizationEnergyMission 3085.4538841248
scalar OsgEarthNet.uav[1] utilizationEnergyMaintenance 1782.5772209167
scalar OsgEarthNet.uav[1] utilizationEnergyCharge 4324.1752929688
scalar OsgEarthNet.uav[1] utilizationEnergyOverdrawMission 0
scalar OsgEarthNet.uav[1] utilizationEnergyOverdrawMaintenance 0
scalar OsgEarthNet.uav[1] utilizationCountMissions 1
scalar OsgEarthNet.uav[1] utilizationCountManeuversMission 27
scalar OsgEarthNet.uav[1] utilizationCountManeuversMaintenance 2
scalar OsgEarthNet.uav[1] utilizationCountChargeState 1
scalar OsgEarthNet.uav[1] utilizationCountOverdrawnAfterMission 0
scalar OsgEarthNet.uav[1] utilizationCountIdleState 2
scalar OsgEarthNet.uav[1] utilizationFail 0
scalar OsgEarthNet.uav[1] simulationTime 259200
scalar OsgEarthNet.uav[2] utilizationSecMission 42984.207137533
scalar OsgEarthNet.uav[2] utilizationSecMaintenance 17790.694005716
scalar OsgEarthNet.uav[2] utilizationSecCharge 195595.46677609
scalar OsgEarthNet.uav[2] utilizationSecIdle 2829.6310806652
scalar OsgEarthNet.uav[2] utilizationEnergyMission 206971.53664017
scalar OsgEarthNet.uav[2] utilizationEnergyMaintenance 80984.896789551
scalar OsgEarthNet.uav[2] utilizationEnergyCharge 284269.17211914
scalar OsgEarthNet.uav[2] utilizationEnergyOverdrawMission 0
scalar OsgEarthNet.uav[2] utilizationEnergyOverdrawMaintenance 0
scalar OsgEarthNet.uav[2] utilizationCountMissions 63
scalar OsgEarthNet.uav[2] utilizationCountManeuversMission 1293
scalar OsgEarthNet.uav[2] utilizationCountManeuversMaintenance 126
scalar OsgEarthNet.uav[2] utilizationCountChargeState 63
scalar OsgEarthNet.uav[2] utilizationCountOverdrawnAfterMission 0
scalar OsgEarthNet.uav[2] utilizationCountIdleState 8
scalar OsgEarthNet.uav[2] utilizationFail 0
scalar OsgEarthNet.uav[2] simulationTime 259200
scalar OsgEarthNet.uav[3] utilizationSecMission 4241.2503051606
scalar OsgEarthNet.uav[3] utilizationSecMaintenance 3178.0599973
scalar OsgEarthNet.uav[3] utilizationSecCharge 28070
scalar OsgEarthNet.uav[3] utilizationSecIdle 223710.68869754
scalar OsgEarthNet.uav[3] utilizationEnergyMission 20793.164310455
scalar OsgEarthNet.uav[3] utilizationEnergyMaintenance 14880.810722351
scalar OsgEarthNet.uav[3] utilizationEnergyCharge 36227.319335938
scalar OsgEarthNet.uav[3] utilizationEnergyOverdrawMission 0
scalar OsgEarthNet.uav[3] utilizationEnergyOverdrawMaintenance 0
scalar OsgEarthNet.uav[3] utilizationCountMissions 8
scalar OsgEarthNet.uav[3] utilizationCountManeuversMission 160
scalar OsgEarthNet.uav[3] utilizationCountManeuversMaintenance 16
scalar OsgEarthNet.uav[3] utilizationCountChargeState 8
scalar OsgEarthNet.uav[3] utilizationCountOverdrawnAfterMission 0
scalar OsgEarthNet.uav[3] utilizationCountIdleState 9
scalar OsgEarthNet.uav[3] utilizationFail 0
scalar OsgEarthNet.uav[3] simulationTime 259200
scalar OsgEarthNet.uav[4] utilizationSecMission 4675.6480277527
scalar OsgEarthNet.uav[4] utilizationSecMaintenance 3022.7435413826
scalar OsgEarthNet.uav[4] utilizationSecCharge 29590
scalar OsgEarthNet.uav[4] utilizationSecIdle 221911.60743086
scalar OsgEarthNet.uav[4] utilizationEnergyMission 23701.570785522
scalar OsgEarthNet.uav[4] utilizationEnergyMaintenance 14382.801963806
scalar OsgEarthNet.uav[4] utilizationEnergyCharge 36969.7421875
scalar OsgEarthNet.uav[4] utilizationEnergyOverdrawMission 0
scalar OsgEarthNet.uav[4] utilizationEnergyOverdrawMaintenance 0
scalar OsgEarthNet.uav[4] utilizationCountMissions 9
scalar OsgEarthNet.uav[4] utilizationCountManeuversMission 152
scalar OsgEarthNet.uav[4] utilizationCountManeuversMaintenance 18
scalar OsgEarthNet.uav[4] utilizationCountChargeState 9
scalar OsgEarthNet.uav[4] utilizationCountOverdrawnAfterMission 0
scalar OsgEarthNet.uav[4] utilizationCountIdleState 10
scalar OsgEarthNet.uav[4] utilizationFail 0
scalar OsgEarthNet.uav[4] simulationTime 259200
scalar OsgEarthNet.uav[5] utilizationSecMission 42843.386355789
scalar OsgEarthNet.uav[5] utilizationSecMaintenance 17939.162380181
scalar OsgEarthNet.uav[5] utilizationSecCharge 197290
scalar OsgEarthNet.uav[5] utilizationSecIdle 1127.4502640309
scalar OsgEarthNet.uav[5] utilizationEnergyMission 208864.7202457
scalar OsgEarthNet.uav[5] utilizationEnergyMaintenance 83088.648864746
scalar OsgEarthNet.uav[5] utilizationEnergyCharge 286454.99853516
scalar OsgEarthNet.uav[5] utilizationEnergyOverdrawMission 0
scalar OsgEarthNet.uav[5] utilizationEnergyOverdrawMaintenance 0
scalar OsgEarthNet.uav[5] utilizationCountMissions 63
scalar OsgEarthNet.uav[5] utilizationCountManeuversMission 1296
scalar OsgEarthNet.uav[5] utilizationCountManeuversMaintenance 127
scalar OsgEarthNet.uav[5] utilizationCountChargeState 63
scalar OsgEarthNet.uav[5] utilizationCountOverdrawnAfterMission 0
scalar OsgEarthNet.uav[5] utilizationCountIdleState 4
scalar OsgEarthNet.uav[5] utilizationFail 0
scalar OsgEarthNet.uav[5] simulationTime 259200
scalar OsgEarthNet.uav[6] utilizationSecMission 2821.2503051606
scalar OsgEarthNet.uav[6] utilizationSecMaintenance 1825.7648167509
scalar OsgEarthNet.uav[6] utilizationSecCharge 17640
scalar OsgEarthNet.uav[6] utilizationSecIdle 236912.98387809
scalar OsgEarthNet.uav[6] utilizationEnergyMission 14045.060951233
scalar OsgEarthNet.uav[6] utilizationEnergyMaintenance 8582.9783096313
scalar OsgEarthNet.uav[6] utilizationEnergyCharge 22779.387695312
scalar OsgEarthNet.uav[6] utilizationEnergyOverdrawMission 0
scalar OsgEarthNet.uav[6] utilizationEnergyOverdrawMaintenance 0
scalar OsgEarthNet.uav[6] utilizationCountMissions 5
scalar OsgEarthNet.uav[6] utilizationCountManeuversMission 89
scalar OsgEarthNet.uav[6] utilizationCountManeuversMaintenance 10
scalar OsgEarthNet.uav[6] utilizationCountChargeState 5
scalar OsgEarthNet.uav[6] utilizationCountOverdrawnAfterMission 0
scalar OsgEarthNet.uav[6] utilizationCountIdleState 6
scalar OsgEarthNet.uav[6] utilizationFail 0
scalar OsgEarthNet.uav[6] simulationTime 259200
scalar OsgEarthNet.uav[7] utilizationSecMission 2016.3500981245
scalar OsgEarthNet.uav[7] utilizationSecMaintenance 1371.7264500112
scalar OsgEarthNet.uav[7] utilizationSecCharge 12880
scalar OsgEarthNet.uav[7] utilizationSecIdle 242931.92245186
scalar OsgEarthNet.uav[7] utilizationEnergyMission 9953.5871696472
scalar OsgEarthNet.uav[7] utilizationEnergyMaintenance 6432.7768211365
scalar OsgEarthNet.uav[7] utilizationEnergyCharge 16009.1953125
scalar OsgEarthNet.uav[7] utilizationEnergyOverdrawMission 0
scalar OsgEarthNet.uav[7] utilizationEnergyOverdrawMaintenance 0
scalar OsgEarthNet.uav[7] utilizationCountMissions 4
scalar OsgEarthNet.uav[7] utilizationCountManeuversMission 71
scalar OsgEarthNet.uav[7] utilizationCountManeuversMaintenance 8
scalar OsgEarthNet.uav[7] utilizationCountChargeState 4
scalar OsgEarthNet.uav[7] utilizationCountOverdrawnAfterMission 0
scalar OsgEarthNet.uav[7] utilizationCountIdleState 5
scalar OsgEarthNet.uav[7] utilizationFail 0
scalar OsgEarthNet.uav[7] simulationTime 259200
scalar OsgEarthNet.uav[8] utilizationSecMission 42066.227704054
scalar OsgEarthNet.uav[8] utilizationSecMaintenance 18232.228452798
scalar OsgEarthNet.uav[8] utilizationSecCharge 194501.50029573
scalar OsgEarthNet.uav[8] utilizationSecIdle 4400.0425474148
scalar OsgEarthNet.uav[8] utilizationEnergyMission 202013.29660416
scalar OsgEarthNet.uav[8] utilizationEnergyMaintenance 84398.252384186
scalar OsgEarthNet.uav[8] utilizationEnergyCharge 283529.87969971
scalar OsgEarthNet.uav[8] utilizationEnergyOverdrawMission 0
scalar OsgEarthNet.uav[8] utilizationEnergyOverdrawMaintenance 0
scalar OsgEarthNet.uav[8] utilizationCountMissions 63
scalar OsgEarthNet.uav[8] utilizationCountManeuversMission 1250
scalar OsgEarthNet.uav[8] utilizationCountManeuversMaintenance 126
scalar OsgEarthNet.uav[8] utilizationCountChargeState 63
scalar OsgEarthNet.uav[8] utilizationCountOverdrawnAfterMission 0
scalar OsgEarthNet.uav[8] utilizationCountIdleState 6
scalar OsgEarthNet.uav[8] utilizationFail 0
scalar OsgEarthNet.uav[8] simulationTime 259200
scalar OsgEarthNet.uav[9] utilizationSecMission 2310.99226641
scalar OsgEarthNet.uav[9] utilizationSecMaintenance 1324.0577676901
scalar OsgEarthNet.uav[9] utilizationSecCharge 13650
scalar OsgEarthNet.uav[9] utilizationSecIdle 241914.9489659
scalar OsgEarthNet.uav[9] utilizationEnergyMission 11166.445587158
scalar OsgEarthNet.uav[9] utilizationEnergyMaintenance 6210.8492393493
scalar OsgEarthNet.uav[9] utilizationEnergyCharge 17317.562988281
scalar OsgEarthNet.uav[9] utilizationEnergyOverdrawMission 0
scalar OsgEarthNet.uav[9] utilizationEnergyOverdrawMaintenance 0
scalar OsgEarthNet.uav[9] utilizationCountMissions 4
scalar OsgEarthNet.uav[9] utilizationCountManeuversMission 68
scalar OsgEarthNet.uav[9] utilizationCountManeuversMaintenance 8
scalar OsgEarthNet.uav[9] utilizationCountChargeState 4
scalar OsgEarthNet.uav[9] utilizationCountOverdrawnAfterMission 0
scalar OsgEarthNet.uav[9] utilizationCountIdleState 5
scalar OsgEarthNet.uav[9] utilizationFail 0
scalar OsgEarthNet.uav[9] simulationTime 259200
scalar OsgEarthNet.uav[10] utilizationSecMission 3982.5006103211
scalar OsgEarthNet.uav[10] utilizationSecMaintenance 1852.0728321431
scalar OsgEarthNet.uav[10] utilizationSecCharge 21460
scalar OsgEarthNet.uav[10] utilizationSecIdle 231905.42555754
scalar OsgEarthNet.uav[10] utilizationEnergyMission 18921.903953552
scalar OsgEarthNet.uav[10] utilizationEnergyMaintenance 8677.0689888
scalar OsgEarthNet.uav[10] utilizationEnergyCharge 27781.840332031
scalar OsgEarthNet.uav[10] utilizationEnergyOverdrawMission 0
scalar OsgEarthNet.uav[10] utilizationEnergyOverdrawMaintenance 0
scalar OsgEarthNet.uav[10] utilizationCountMissions 6
scalar OsgEarthNet.uav[10] utilizationCountManeuversMission 95
scalar OsgEarthNet.uav[10] utilizationCountManeuversMaintenance 12
scalar OsgEarthNet.uav[10] utilizationCountChargeState 6
scalar OsgEarthNet.uav[10] utilizationCountOverdrawnAfterMission 0
scalar OsgEarthNet.uav[10] utilizationCountIdleState 7
scalar OsgEarthNet.uav[10] utilizationFail 0
scalar OsgEarthNet.uav[10] simulationTime 259200
scalar OsgEarthNet.uav[11] utilizationSecMission 3271.7913260144
scalar OsgEarthNet.uav[11] utilizationSecMaintenance 1550.0977117121
scalar OsgEarthNet.uav[11] utilizationSecCharge 17830
scalar OsgEarthNet.uav[11] utilizationSecIdle 236548.10996227
scalar OsgEarthNet.uav[11] utilizationEnergyMission 15605.13174057
scalar OsgEarthNet.uav[11] utilizationEnergyMaintenance 7747.6184654236
scalar OsgEarthNet.uav[11] utilizationEnergyCharge 23090.523925781
scalar OsgEarthNet.uav[11] utilizationEnergyOverdrawMission 0
scalar OsgEarthNet.uav[11] utilizationEnergyOverdrawMaintenance 0
scalar OsgEarthNet.uav[11] utilizationCountMissions 5
scalar OsgEarthNet.uav[11] utilizationCountManeuversMission 75
scalar OsgEarthNet.uav[11] utilizationCountManeuversMaintenance 10
scalar OsgEarthNet.uav[11] utilizationCountChargeState 5
scalar OsgEarthNet.uav[11] utilizationCountOverdrawnAfterMission 0
scalar OsgEarthNet.uav[11] utilizationCountIdleState 6
scalar OsgEarthNet.uav[11] utilizationFail 0
scalar OsgEarthNet.uav[11] simulationTime 259200
scalar OsgEarthNet.uav[12] utilizationSecMission 41638.834493898
scalar OsgEarthNet.uav[12] utilizationSecMaintenance 18300.484501069
scalar OsgEarthNet.uav[12] utilizationSecCharge 197258.67800503
scalar OsgEarthNet.uav[12] utilizationSecIdle 2002.002
scalar OsgEarthNet.uav[12] utilizationEnergyMission 200169.37099457
scalar OsgEarthNet.uav[12] utilizationEnergyMaintenance 84536.723239899
scalar OsgEarthNet.uav[12] utilizationEnergyCharge 288173.71484375
scalar OsgEarthNet.uav[12] utilizationEnergyOverdrawMission 0
scalar OsgEarthNet.uav[12] utilizationEnergyOverdrawMaintenance 0
scalar OsgEarthNet.uav[12] utilizationCountMissions 63
scalar OsgEarthNet.uav[12] utilizationCountManeuversMission 1284
scalar OsgEarthNet.uav[12] utilizationCountManeuversMaintenance 126
scalar OsgEarthNet.uav[12] utilizationCountChargeState 63
scalar OsgEarthNet.uav[12] utilizationCountOverdrawnAfterMission 0
scalar OsgEarthNet.uav[12] utilizationCountIdleState 8
scalar OsgEarthNet.uav[12] utilizationFail 0
scalar OsgEarthNet.uav[12] simulationTime 259200
scalar OsgEarthNet.uav[13] utilizationSecMission 4482.5006103211
scalar OsgEarthNet.uav[13] utilizationSecMaintenance 2386.8405604194
scalar OsgEarthNet.uav[13] utilizationSecCharge 25140
scalar OsgEarthNet.uav[13] utilizationSecIdle 227190.65782926
scalar OsgEarthNet.uav[13] utilizationEnergyMission 21403.8463974
scalar OsgEarthNet.uav[13] utilizationEnergyMaintenance 11350.317382812
scalar OsgEarthNet.uav[13] utilizationEnergyCharge 32604.871582031
scalar OsgEarthNet.uav[13] utilizationEnergyOverdrawMission 0
scalar OsgEarthNet.uav[13] utilizationEnergyOverdrawMaintenance 0
scalar OsgEarthNet.uav[13] utilizationCountMissions 7
scalar OsgEarthNet.uav[13] utilizationCountManeuversMission 120
scalar OsgEarthNet.uav[13] utilizationCountManeuversMaintenance 14
scalar OsgEarthNet.uav[13] utilizationCountChargeState 7
scalar OsgEarthNet.uav[13] utilizationCountOverdrawnAfterMission 0
scalar OsgEarthNet.uav[13] utilizationCountIdleState 8
scalar OsgEarthNet.uav[13] utilizationFail 0
scalar OsgEarthNet.uav[13] simulationTime 259200
scalar OsgEarthNet.uav[14] utilizationSecMission 4606.10246287
scalar OsgEarthNet.uav[14] utilizationSecMaintenance 3412.4981462707
scalar OsgEarthNet.uav[14] utilizationSecCharge 32260
scalar OsgEarthNet.uav[14] utilizationSecIdle 218921.39839086
scalar OsgEarthNet.uav[14] utilizationEnergyMission 22519.495735168
scalar OsgEarthNet.uav[14] utilizationEnergyMaintenance 16476.25308609
scalar OsgEarthNet.uav[14] utilizationEnergyCharge 40075.207275391
scalar OsgEarthNet.uav[14] utilizationEnergyOverdrawMission 0
scalar OsgEarthNet.uav[14] utilizationEnergyOverdrawMaintenance 0
scalar OsgEarthNet.uav[14] utilizationCountMissions 10
scalar OsgEarthNet.uav[14] utilizationCountManeuversMission 163
scalar OsgEarthNet.uav[14] utilizationCountManeuversMaintenance 20
scalar OsgEarthNet.uav[14] utilizationCountChargeState 10
scalar OsgEarthNet.uav[14] utilizationCountOverdrawnAfterMission 0
scalar OsgEarthNet.uav[14] utilizationCountIdleState 11
scalar OsgEarthNet.uav[14] utilizationFail 0
scalar OsgEarthNet.uav[14] simulationTime 259200
scalar OsgEarthNet.uav[15] utilizationSecMission 42171.23562171
scalar OsgEarthNet.uav[15] utilizationSecMaintenance 18303.545469199
scalar OsgEarthNet.uav[15] utilizationSecCharge 197383.21590909
scalar OsgEarthNet.uav[15] utilizationSecIdle 1342.002
scalar OsgEarthNet.uav[15] utilizationEnergyMission 204756.97856903
scalar OsgEarthNet.uav[15] utilizationEnergyMaintenance 84393.076587677
scalar OsgEarthNet.uav[15] utilizationEnergyCharge 289017.30834961
scalar OsgEarthNet.uav[15] utilizationEnergyOverdrawMission 0
scalar OsgEarthNet.uav[15] utilizationEnergyOverdrawMaintenance 0
scalar OsgEarthNet.uav[15] utilizationCountMissions 63
scalar OsgEarthNet.uav[15] utilizationCountManeuversMission 1240
scalar OsgEarthNet.uav[15] utilizationCountManeuversMaintenance 126
scalar OsgEarthNet.uav[15] utilizationCountChargeState 63
scalar OsgEarthNet.uav[15] utilizationCountOverdrawnAfterMission 0
scalar OsgEarthNet.uav[15] utilizationCountIdleState 6
scalar OsgEarthNet.uav[15] utilizationFail 0
scalar OsgEarthNet.uav[15] simulationTime 259200
scalar OsgEarthNet.uav[16] utilizationSecMission 4181.8754577408
scalar OsgEarthNet.uav[16] utilizationSecMaintenance 2543.7187551636
scalar OsgEarthNet.uav[16] utilizationSecCharge 24900
scalar OsgEarthNet.uav[16] utilizationSecIdle 227574.4047871
scalar OsgEarthNet.uav[16] utilizationEnergyMission 20923.798217773
scalar OsgEarthNet.uav[16] utilizationEnergyMaintenance 12100.140766144
scalar OsgEarthNet.uav[16] utilizationEnergyCharge 32095.747070312
scalar OsgEarthNet.uav[16] utilizationEnergyOverdrawMission 0
scalar OsgEarthNet.uav[16] utilizationEnergyOverdrawMaintenance 0
scalar OsgEarthNet.uav[16] utilizationCountMissions 7
scalar OsgEarthNet.uav[16] utilizationCountManeuversMission 131
scalar OsgEarthNet.uav[16] utilizationCountManeuversMaintenance 14
scalar OsgEarthNet.uav[16] utilizationCountChargeState 7
scalar OsgEarthNet.uav[16] utilizationCountOverdrawnAfterMission 0
scalar OsgEarthNet.uav[16] utilizationCountIdleState 8
scalar OsgEarthNet.uav[16] utilizationFail 0
scalar OsgEarthNet.uav[16] simulationTime 259200
scalar OsgEarthNet.uav[17] utilizationSecMission 17927.301889288
scalar OsgEarthNet.uav[17] utilizationSecMaintenance 14220.696603329
scalar OsgEarthNet.uav[17] utilizationSecCharge 127380
scalar OsgEarthNet.uav[17] utilizationSecIdle 99672.000507383
scalar OsgEarthNet.uav[17] utilizationEnergyMission 88268.67862892
scalar OsgEarthNet.uav[17] utilizationEnergyMaintenance 67101.251346588
scalar OsgEarthNet.uav[17] utilizationEnergyCharge 153887.2331543
scalar OsgEarthNet.uav[17] utilizationEnergyOverdrawMission 0
scalar OsgEarthNet.uav[17] utilizationEnergyOverdrawMaintenance 0
scalar OsgEarthNet.uav[17] utilizationCountMissions 42
scalar OsgEarthNet.uav[17] utilizationCountManeuversMission 632
scalar OsgEarthNet.uav[17] utilizationCountManeuversMaintenance 85
scalar OsgEarthNet.uav[17] utilizationCountChargeState 42
scalar OsgEarthNet.uav[17] utilizationCountOverdrawnAfterMission 0
scalar OsgEarthNet.uav[17] utilizationCountIdleState 43
scalar OsgEarthNet.uav[17] utilizationFail 0
scalar OsgEarthNet.uav[17] simulationTime 259200
scalar OsgEarthNet.uav[18] utilizationSecMission 42766.618230507
scalar OsgEarthNet.uav[18] utilizationSecMaintenance 17500.080435104
scalar OsgEarthNet.uav[18] utilizationSecCharge 196081.29533439
scalar OsgEarthNet.uav[18] utilizationSecIdle 2852.005
scalar OsgEarthNet.uav[18] utilizationEnergyMission 206844.96120071
scalar OsgEarthNet.uav[18] utilizationEnergyMaintenance 79824.921791077
scalar OsgEarthNet.uav[18] utilizationEnergyCharge 285385.54345703
scalar OsgEarthNet.uav[18] utilizationEnergyOverdrawMission 0
scalar OsgEarthNet.uav[18] utilizationEnergyOverdrawMaintenance 0
scalar OsgEarthNet.uav[18] utilizationCountMissions 62
scalar OsgEarthNet.uav[18] utilizationCountManeuversMission 1299
scalar OsgEarthNet.uav[18] utilizationCountManeuversMaintenance 124
scalar OsgEarthNet.uav[18] utilizationCountChargeState 62
scalar OsgEarthNet.uav[18] utilizationCountOverdrawnAfterMission 0
scalar OsgEarthNet.uav[18] utilizationCountIdleState 3
scalar OsgEarthNet.uav[18] utilizationFail 0
scalar OsgEarthNet.uav[18] simulationTime 259200
scalar OsgEarthNet.uav[19] utilizationSecMission 3661.8754577408
scalar OsgEarthNet.uav[19] utilizationSecMaintenance 2018.9510268873
scalar OsgEarthNet.uav[19] utilizationSecCharge 21040
scalar OsgEarthNet.uav[19] utilizationSecIdle 232479.17251537
scalar OsgEarthNet.uav[19] utilizationEnergyMission 17249.861488342
scalar OsgEarthNet.uav[19] utilizationEnergyMaintenance 9624.7893562317
scalar OsgEarthNet.uav[19] utilizationEnergyCharge 27104.422363281
scalar OsgEarthNet.uav[19] utilizationEnergyOverdrawMission 0
scalar OsgEarthNet.uav[19] utilizationEnergyOverdrawMaintenance 0
scalar OsgEarthNet.uav[19] utilizationCountMissions 6
scalar OsgEarthNet.uav[19] utilizationCountManeuversMission 105
scalar OsgEarthNet.uav[19] utilizationCountManeuversMaintenance 12
scalar OsgEarthNet.uav[19] utilizationCountChargeState 6
scalar OsgEarthNet.uav[19] utilizationCountOverdrawnAfterMission 0
scalar OsgEarthNet.uav[19] utilizationCountIdleState 7
scalar OsgEarthNet.uav[19] utilizationFail 0
scalar OsgEarthNet.uav[19] simulationTime 259200
scalar OsgEarthNet.uav[20] utilizationSecMission 12545.626373223
scalar OsgEarthNet.uav[20] utilizationSecMaintenance 7107.5551868412
scalar OsgEarthNet.uav[20] utilizationSecCharge 71094.816439936
scalar OsgEarthNet.uav[20] utilizationSecIdle 168452.001
scalar OsgEarthNet.uav[20] utilizationEnergyMission 60547.541877747
scalar OsgEarthNet.uav[20] utilizationEnergyMaintenance 33624.051692963
scalar OsgEarthNet.uav[20] utilizationEnergyCharge 91920.991210938
scalar OsgEarthNet.uav[20] utilizationEnergyOverdrawMission 0
scalar OsgEarthNet.uav[20] utilizationEnergyOverdrawMaintenance 0
scalar OsgEarthNet.uav[20] utilizationCountMissions 21
scalar OsgEarthNet.uav[20] utilizationCountManeuversMission 393
scalar OsgEarthNet.uav[20] utilizationCountManeuversMaintenance 42
scalar OsgEarthNet.uav[20] utilizationCountChargeState 21
scalar OsgEarthNet.uav[20] utilizationCountOverdrawnAfterMission 0
scalar OsgEarthNet.uav[20] utilizationCountIdleState 21
scalar OsgEarthNet.uav[20] utilizationFail 0
scalar OsgEarthNet.uav[20] simulationTime 259200
scalar OsgEarthNet.uav[21] utilizationSecMission 10803.08738152
scalar OsgEarthNet.uav[21] utilizationSecMaintenance 6390.2591867312
scalar OsgEarthNet.uav[21] utilizationSecCharge 66140
scalar OsgEarthNet.uav[21] utilizationSecIdle 175866.65243175
scalar OsgEarthNet.uav[21] utilizationEnergyMission 51638.066581726
scalar OsgEarthNet.uav[21] utilizationEnergyMaintenance 30461.740341187
scalar OsgEarthNet.uav[21] utilizationEnergyCharge 83126.475585938
scalar OsgEarthNet.uav[21] utilizationEnergyOverdrawMission 0
scalar OsgEarthNet.uav[21] utilizationEnergyOverdrawMaintenance 0
scalar OsgEarthNet.uav[21] utilizationCountMissions 20
scalar OsgEarthNet.uav[21] utilizationCountManeuversMission 288
scalar OsgEarthNet.uav[21] utilizationCountManeuversMaintenance 40
scalar OsgEarthNet.uav[21] utilizationCountChargeState 20
scalar OsgEarthNet.uav[21] utilizationCountOverdrawnAfterMission 0
scalar OsgEarthNet.uav[21] utilizationCountIdleState 21
scalar OsgEarthNet.uav[21] utilizationFail 0
scalar OsgEarthNet.uav[21] simulationTime 259200
scalar OsgEarthNet.uav[22] utilizationSecMission 42460.417440581
scalar OsgEarthNet.uav[22] utilizationSecMaintenance 18895.083618244
scalar OsgEarthNet.uav[22] utilizationSecCharge 196730
scalar OsgEarthNet.uav[22] utilizationSecIdle 1114.4979411756
scalar OsgEarthNet.uav[22] utilizationEnergyMission 203587.82859513
scalar OsgEarthNet.uav[22] utilizationEnergyMaintenance 88128.059967041
scalar OsgEarthNet.uav[22] utilizationEnergyCharge 287798.765625
scalar OsgEarthNet.uav[22] utilizationEnergyOverdrawMission 0
scalar OsgEarthNet.uav[22] utilizationEnergyOverdrawMaintenance 0
scalar OsgEarthNet.uav[22] utilizationCountMissions 63
scalar OsgEarthNet.uav[22] utilizationCountManeuversMission 1221
scalar OsgEarthNet.uav[22] utilizationCountManeuversMaintenance 127
scalar OsgEarthNet.uav[22] utilizationCountChargeState 63
scalar OsgEarthNet.uav[22] utilizationCountOverdrawnAfterMission 0
scalar OsgEarthNet.uav[22] utilizationCountIdleState 3
scalar OsgEarthNet.uav[22] utilizationFail 0
scalar OsgEarthNet.uav[22] simulationTime 259200
scalar OsgEarthNet.uav[23] utilizationSecMission 6561.8754577408
scalar OsgEarthNet.uav[23] utilizationSecMaintenance 4780.877389412
scalar OsgEarthNet.uav[23] utilizationSecCharge 42760
scalar OsgEarthNet.uav[23] utilizationSecIdle 205097.24615285
scalar OsgEarthNet.uav[23] utilizationEnergyMission 32098.839256287
scalar OsgEarthNet.uav[23] utilizationEnergyMaintenance 22942.750198364
scalar OsgEarthNet.uav[23] utilizationEnergyCharge 55362.999023438
scalar OsgEarthNet.uav[23] utilizationEnergyOverdrawMission 0
scalar OsgEarthNet.uav[23] utilizationEnergyOverdrawMaintenance 0
scalar OsgEarthNet.uav[23] utilizationCountMissions 12
scalar OsgEarthNet.uav[23] utilizationCountManeuversMission 250
scalar OsgEarthNet.uav[23] utilizationCountManeuversMaintenance 24
scalar OsgEarthNet.uav[23] utilizationCountChargeState 12
scalar OsgEarthNet.uav[23] utilizationCountOverdrawnAfterMission 0
scalar OsgEarthNet.uav[23] utilizationCountIdleState 13
scalar OsgEarthNet.uav[23] utilizationFail 0
scalar OsgEarthNet.uav[23] simulationTime 259200
scalar OsgEarthNet.uav[24] utilizationSecMission 10841.750490623
scalar OsgEarthNet.uav[24] utilizationSecMaintenance 7611.8838504222
scalar OsgEarthNet.uav[24] utilizationSecCharge 72006.25157463
scalar OsgEarthNet.uav[24] utilizationSecIdle 168740.11308433
scalar OsgEarthNet.uav[24] utilizationEnergyMission 54065.177078247
scalar OsgEarthNet.uav[24] utilizationEnergyMaintenance 36280.309192657
scalar OsgEarthNet.uav[24] utilizationEnergyCharge 90571.536376953
scalar OsgEarthNet.uav[24] utilizationEnergyOverdrawMission 0
scalar OsgEarthNet.uav[24] utilizationEnergyOverdrawMaintenance 0
scalar OsgEarthNet.uav[24] utilizationCountMissions 22
scalar OsgEarthNet.uav[24] utilizationCountManeuversMission 393
scalar OsgEarthNet.uav[24] utilizationCountManeuversMaintenance 44
scalar OsgEarthNet.uav[24] utilizationCountChargeState 22
scalar OsgEarthNet.uav[24] utilizationCountOverdrawnAfterMission 0
scalar OsgEarthNet.uav[24] utilizationCountIdleState 22
scalar OsgEarthNet.uav[24] utilizationFail 0
scalar OsgEarthNet.uav[24] simulationTime 259200
scalar OsgEarthNet.uav[25] utilizationSecMission 22276.324059397
scalar OsgEarthNet.uav[25] utilizationSecMaintenance 11510.783503711
scalar OsgEarthNet.uav[25] utilizationSecCharge 119970
scalar OsgEarthNet.uav[25] utilizationSecIdle 105442.89143689
scalar OsgEarthNet.uav[25] utilizationEnergyMission 107600.2639122
scalar OsgEarthNet.uav[25] utilizationEnergyMaintenance 53925.012767792
scalar OsgEarthNet.uav[25] utilizationEnergyCharge 160322.41162109
scalar OsgEarthNet.uav[25] utilizationEnergyOverdrawMission 0
scalar OsgEarthNet.uav[25] utilizationEnergyOverdrawMaintenance 0
scalar OsgEarthNet.uav[25] utilizationCountMissions 37
scalar OsgEarthNet.uav[25] utilizationCountManeuversMission 631
scalar OsgEarthNet.uav[25] utilizationCountManeuversMaintenance 74
scalar OsgEarthNet.uav[25] utilizationCountChargeState 37
scalar OsgEarthNet.uav[25] utilizationCountOverdrawnAfterMission 0
scalar OsgEarthNet.uav[25] utilizationCountIdleState 23
scalar OsgEarthNet.uav[25] utilizationFail 0
scalar OsgEarthNet.uav[25] simulationTime 259200
scalar OsgEarthNet.uav[26] utilizationSecMission 8599.2559195981
scalar OsgEarthNet.uav[26] utilizationSecMaintenance 6648.7340804019
scalar OsgEarthNet.uav[26] utilizationSecCharge 56640
scalar OsgEarthNet.uav[26] utilizationSecIdle 187312.009
scalar OsgEarthNet.uav[26] utilizationEnergyMission 43997.234265173
scalar OsgEarthNet.uav[26] utilizationEnergyMaintenance 31604.535125732
scalar OsgEarthNet.uav[26] utilizationEnergyCharge 73026.0390625
scalar OsgEarthNet.uav[26] utilizationEnergyOverdrawMission 0
scalar OsgEarthNet.uav[26] utilizationEnergyOverdrawMaintenance 0
scalar OsgEarthNet.uav[26] utilizationCountMissions 16
scalar OsgEarthNet.uav[26] utilizationCountManeuversMission 352
scalar OsgEarthNet.uav[26] utilizationCountManeuversMaintenance 33
scalar OsgEarthNet.uav[26] utilizationCountChargeState 16
scalar OsgEarthNet.uav[26] utilizationCountOverdrawnAfterMission 0
scalar OsgEarthNet.uav[26] utilizationCountIdleState 17
scalar OsgEarthNet.uav[26] utilizationFail 0
scalar OsgEarthNet.uav[26] simulationTime 259200
scalar OsgEarthNet.uav[27] utilizationSecMission 11811.502855368
scalar OsgEarthNet.uav[27] utilizationSecMaintenance 8456.0937882474
scalar OsgEarthNet.uav[27] utilizationSecCharge 79680
scalar OsgEarthNet.uav[27] utilizationSecIdle 159252.40235638
scalar OsgEarthNet.uav[27] utilizationEnergyMission 57367.363342285
scalar OsgEarthNet.uav[27] utilizationEnergyMaintenance 40020.796520233
scalar OsgEarthNet.uav[27] utilizationEnergyCharge 98358.672363281
scalar OsgEarthNet.uav[27] utilizationEnergyOverdrawMission 0
scalar OsgEarthNet.uav[27] utilizationEnergyOverdrawMaintenance 0
scalar OsgEarthNet.uav[27] utilizationCountMissions 25
scalar OsgEarthNet.uav[27] utilizationCountManeuversMission 404
scalar OsgEarthNet.uav[27] utilizationCountManeuversMaintenance 50
scalar OsgEarthNet.uav[27] utilizationCountChargeState 25
scalar OsgEarthNet.uav[27] utilizationCountOverdrawnAfterMission 0
scalar OsgEarthNet.uav[27] utilizationCountIdleState 26
scalar OsgEarthNet.uav[27] utilizationFail 0
scalar OsgEarthNet.uav[27] simulationTime 259200
scalar OsgEarthNet.uav[28] utilizationSecMission 42511.947659207
scalar OsgEarthNet.uav[28] utilizationSecMaintenance 18131.85036033
scalar OsgEarthNet.uav[28] utilizationSecCharge 197366.98136655
scalar OsgEarthNet.uav[28] utilizationSecIdle 1189.2196139157
scalar OsgEarthNet.uav[28] utilizationEnergyMission 204297.68172073
scalar OsgEarthNet.uav[28] utilizationEnergyMaintenance 84337.50157547
scalar OsgEarthNet.uav[28] utilizationEnergyCharge 287688.18432617
scalar OsgEarthNet.uav[28] utilizationEnergyOverdrawMission 0
scalar OsgEarthNet.uav[28] utilizationEnergyOverdrawMaintenance 0
scalar OsgEarthNet.uav[28] utilizationCountMissions 63
scalar OsgEarthNet.uav[28] utilizationCountManeuversMission 1231
scalar OsgEarthNet.uav[28] utilizationCountManeuversMaintenance 126
scalar OsgEarthNet.uav[28] utilizationCountChargeState 63
scalar OsgEarthNet.uav[28] utilizationCountOverdrawnAfterMission 0
scalar OsgEarthNet.uav[28] utilizationCountIdleState 4
scalar OsgEarthNet.uav[28] utilizationFail 0
scalar OsgEarthNet.uav[28] simulationTime 259200
scalar OsgEarthNet.uav[29] utilizationSecMission 8624.4851431412
scalar OsgEarthNet.uav[29] utilizationSecMaintenance 4568.095901572
scalar OsgEarthNet.uav[29] utilizationSecCharge 49140
scalar OsgEarthNet.uav[29] utilizationSecIdle 196867.41795529
scalar OsgEarthNet.uav[29] utilizationEnergyMission 41693.615619659
scalar OsgEarthNet.uav[29] utilizationEnergyMaintenance 21737.089130402
scalar OsgEarthNet.uav[29] utilizationEnergyCharge 63255.28515625
scalar OsgEarthNet.uav[29] utilizationEnergyOverdrawMission 0
scalar OsgEarthNet.uav[29] utilizationEnergyOverdrawMaintenance 0
scalar OsgEarthNet.uav[29] utilizationCountMissions 14
scalar OsgEarthNet.uav[29] utilizationCountManeuversMission 232
scalar OsgEarthNet.uav[29] utilizationCountManeuversMaintenance 28
scalar OsgEarthNet.uav[29] utilizationCountChargeState 14
scalar OsgEarthNet.uav[29] utilizationCountOverdrawnAfterMission 0
scalar OsgEarthNet.uav[29] utilizationCountIdleState 15
scalar OsgEarthNet.uav[29] utilizationFail 0
scalar OsgEarthNet.uav[29] simulationTime 259200
scalar OsgEarthNet.uav[30] utilizationSecMission 8233.4928767312
scalar OsgEarthNet.uav[30] utilizationSecMaintenance 5033.4636146983
scalar OsgEarthNet.uav[30] utilizationSecCharge 49160
scalar OsgEarthNet.uav[30] utilizationSecIdle 196773.04250857
scalar OsgEarthNet.uav[30] utilizationEnergyMission 39688.896549225
scalar OsgEarthNet.uav[30] utilizationEnergyMaintenance 23706.694465637
scalar OsgEarthNet.uav[30] utilizationEnergyCharge 63133.913085938
scalar OsgEarthNet.uav[30] utilizationEnergyOverdrawMission 0
scalar OsgEarthNet.uav[30] utilizationEnergyOverdrawMaintenance 0
scalar OsgEarthNet.uav[30] utilizationCountMissions 14
scalar OsgEarthNet.uav[30] utilizationCountManeuversMission 260
scalar OsgEarthNet.uav[30] utilizationCountManeuversMaintenance 28
scalar OsgEarthNet.uav[30] utilizationCountChargeState 14
scalar OsgEarthNet.uav[30] utilizationCountOverdrawnAfterMission 0
scalar OsgEarthNet.uav[30] utilizationCountIdleState 15
scalar OsgEarthNet.uav[30] utilizationFail 0
scalar OsgEarthNet.uav[30] simulationTime 259200
scalar OsgEarthNet.uav[31] utilizationSecMission 11232.411725603
scalar OsgEarthNet.uav[31] utilizationSecMaintenance 8849.4326139719
scalar OsgEarthNet.uav[31] utilizationSecCharge 80900
scalar OsgEarthNet.uav[31] utilizationSecIdle 158218.15466043
scalar OsgEarthNet.uav[31] utilizationEnergyMission 55767.244571686
scalar OsgEarthNet.uav[31] utilizationEnergyMaintenance 41977.792881012
scalar OsgEarthNet.uav[31] utilizationEnergyCharge 98785.290527344
scalar OsgEarthNet.uav[31] utilizationEnergyOverdrawMission 0
scalar OsgEarthNet.uav[31] utilizationEnergyOverdrawMaintenance 0
scalar OsgEarthNet.uav[31] utilizationCountMissions 26
scalar OsgEarthNet.uav[31] utilizationCountManeuversMission 404
scalar OsgEarthNet.uav[31] utilizationCountManeuversMaintenance 52
scalar OsgEarthNet.uav[31] utilizationCountChargeState 26
scalar OsgEarthNet.uav[31] utilizationCountOverdrawnAfterMission 0
scalar OsgEarthNet.uav[31] utilizationCountIdleState 27
scalar OsgEarthNet.uav[31] utilizationFail 0
scalar OsgEarthNet.uav[31] simulationTime 259200
scalar OsgEarthNet.uav[32] utilizationSecMission 42235.752335476
scalar OsgEarthNet.uav[32] utilizationSecMaintenance 18292.246664524
scalar OsgEarthNet.uav[32] utilizationSecCharge 197770
scalar OsgEarthNet.uav[32] utilizationSecIdle 902
scalar OsgEarthNet.uav[32] utilizationEnergyMission 207010.52289579
scalar OsgEarthNet.uav[32] utilizationEnergyMaintenance 85008.761295319
scalar OsgEarthNet.uav[32] utilizationEnergyCharge 287442.69970703
scalar OsgEarthNet.uav[32] utilizationEnergyOverdrawMission 0
scalar OsgEarthNet.uav[32] utilizationEnergyOverdrawMaintenance 0
scalar OsgEarthNet.uav[32] utilizationCountMissions 63
scalar OsgEarthNet.uav[32] utilizationCountManeuversMission 1302
scalar OsgEarthNet.uav[32] utilizationCountManeuversMaintenance 127
scalar OsgEarthNet.uav[32] utilizationCountChargeState 63
scalar OsgEarthNet.uav[32] utilizationCountOverdrawnAfterMission 0
scalar OsgEarthNet.uav[32] utilizationCountIdleState 8
scalar OsgEarthNet.uav[32] utilizationFail 0
scalar OsgEarthNet.uav[32] simulationTime 259200
scalar OsgEarthNet.uav[33] utilizationSecMission 8943.1257629014
scalar OsgEarthNet.uav[33] utilizationSecMaintenance 6062.1132633841
scalar OsgEarthNet.uav[33] utilizationSecCharge 56040
scalar OsgEarthNet.uav[33] utilizationSecIdle 188154.75997371
scalar OsgEarthNet.uav[33] utilizationEnergyMission 44198.019561768
scalar OsgEarthNet.uav[33] utilizationEnergyMaintenance 28399.83303833
scalar OsgEarthNet.uav[33] utilizationEnergyCharge 72123.733398438
scalar OsgEarthNet.uav[33] utilizationEnergyOverdrawMission 0
scalar OsgEarthNet.uav[33] utilizationEnergyOverdrawMaintenance 0
scalar OsgEarthNet.uav[33] utilizationCountMissions 16
scalar OsgEarthNet.uav[33] utilizationCountManeuversMission 317
scalar OsgEarthNet.uav[33] utilizationCountManeuversMaintenance 32
scalar OsgEarthNet.uav[33] utilizationCountChargeState 16
scalar OsgEarthNet.uav[33] utilizationCountOverdrawnAfterMission 0
scalar OsgEarthNet.uav[33] utilizationCountIdleState 17
scalar OsgEarthNet.uav[33] utilizationFail 0
scalar OsgEarthNet.uav[33] simulationTime 259200
scalar OsgEarthNet.uav[34] utilizationSecMission 14858.100588747
scalar OsgEarthNet.uav[34] utilizationSecMaintenance 10586.521049741
scalar OsgEarthNet.uav[34] utilizationSecCharge 99359.005990549
scalar OsgEarthNet.uav[34] utilizationSecIdle 134396.37137096
scalar OsgEarthNet.uav[34] utilizationEnergyMission 73288.426528931
scalar OsgEarthNet.uav[34] utilizationEnergyMaintenance 50860.547813415
scalar OsgEarthNet.uav[34] utilizationEnergyCharge 125209.17675781
scalar OsgEarthNet.uav[34] utilizationEnergyOverdrawMission 0
scalar OsgEarthNet.uav[34] utilizationEnergyOverdrawMaintenance 0
scalar OsgEarthNet.uav[34] utilizationCountMissions 30
scalar OsgEarthNet.uav[34] utilizationCountManeuversMission 564
scalar OsgEarthNet.uav[34] utilizationCountManeuversMaintenance 60
scalar OsgEarthNet.uav[34] utilizationCountChargeState 30
scalar OsgEarthNet.uav[34] utilizationCountOverdrawnAfterMission 0
scalar OsgEarthNet.uav[34] utilizationCountIdleState 30
scalar OsgEarthNet.uav[34] utilizationFail 0
scalar OsgEarthNet.uav[34] simulationTime 259200
scalar OsgEarthNet.uav[35] utilizationSecMission 42780.877212868
scalar OsgEarthNet.uav[35] utilizationSecMaintenance 17080.997506249
scalar OsgEarthNet.uav[35] utilizationSecCharge 195476.11928088
scalar OsgEarthNet.uav[35] utilizationSecIdle 3862.005
scalar OsgEarthNet.uav[35] utilizationEnergyMission 208233.11234283
scalar OsgEarthNet.uav[35] utilizationEnergyMaintenance 78522.018257141
scalar OsgEarthNet.uav[35] utilizationEnergyCharge 284545.25390625
scalar OsgEarthNet.uav[35] utilizationEnergyOverdrawMission 0
scalar OsgEarthNet.uav[35] utilizationEnergyOverdrawMaintenance 0
scalar OsgEarthNet.uav[35] utilizationCountMissions 62
scalar OsgEarthNet.uav[35] utilizationCountManeuversMission 1327
scalar OsgEarthNet.uav[35] utilizationCountManeuversMaintenance 124
scalar OsgEarthNet.uav[35] utilizationCountChargeState 62
scalar OsgEarthNet.uav[35] utilizationCountOverdrawnAfterMission 0
scalar OsgEarthNet.uav[35] utilizationCountIdleState 8
scalar OsgEarthNet.uav[35] utilizationFail 0
scalar OsgEarthNet.uav[35] simulationTime 259200
scalar OsgEarthNet.uav[36] utilizationSecMission 16865.626373223
scalar OsgEarthNet.uav[36] utilizationSecMaintenance 11931.341743214
scalar OsgEarthNet.uav[36] utilizationSecCharge 108291.03088356
scalar OsgEarthNet.uav[36] utilizationSecIdle 122112
scalar OsgEarthNet.uav[36] utilizationEnergyMission 79783.613014221
scalar OsgEarthNet.uav[36] utilizationEnergyMaintenance 56844.149555206
scalar OsgEarthNet.uav[36] utilizationEnergyCharge 139689.34423828
scalar OsgEarthNet.uav[36] utilizationEnergyOverdrawMission 0
scalar OsgEarthNet.uav[36] utilizationEnergyOverdrawMaintenance 0
scalar OsgEarthNet.uav[36] utilizationCountMissions 31
scalar OsgEarthNet.uav[36] utilizationCountManeuversMission 609
scalar OsgEarthNet.uav[36] utilizationCountManeuversMaintenance 62
scalar OsgEarthNet.uav[36] utilizationCountChargeState 31
scalar OsgEarthNet.uav[36] utilizationCountOverdrawnAfterMission 0
scalar OsgEarthNet.uav[36] utilizationCountIdleState 31
scalar OsgEarthNet.uav[36] utilizationFail 0
scalar OsgEarthNet.uav[36] simulationTime 259200
scalar OsgEarthNet.uav[37] utilizationSecMission 17056.696448003
scalar OsgEarthNet.uav[37] utilizationSecMaintenance 11475.529918103
scalar OsgEarthNet.uav[37] utilizationSecCharge 110030
scalar OsgEarthNet.uav[37] utilizationSecIdle 120637.77263389
scalar OsgEarthNet.uav[37] utilizationEnergyMission 82519.080505371
scalar OsgEarthNet.uav[37] utilizationEnergyMaintenance 54528.034660339
scalar OsgEarthNet.uav[37] utilizationEnergyCharge 136785.26464844
scalar OsgEarthNet.uav[37] utilizationEnergyOverdrawMission 0
scalar OsgEarthNet.uav[37] utilizationEnergyOverdrawMaintenance 0
scalar OsgEarthNet.uav[37] utilizationCountMissions 34
scalar OsgEarthNet.uav[37] utilizationCountManeuversMission 570
scalar OsgEarthNet.uav[37] utilizationCountManeuversMaintenance 68
scalar OsgEarthNet.uav[37] utilizationCountChargeState 34
scalar OsgEarthNet.uav[37] utilizationCountOverdrawnAfterMission 0
scalar OsgEarthNet.uav[37] utilizationCountIdleState 35
scalar OsgEarthNet.uav[37] utilizationFail 0
scalar OsgEarthNet.uav[37] simulationTime 259200
scalar OsgEarthNet.uav[38] utilizationSecMission 41431.015921934
scalar OsgEarthNet.uav[38] utilizationSecMaintenance 19358.344787618
scalar OsgEarthNet.uav[38] utilizationSecCharge 198248.63829045
scalar OsgEarthNet.uav[38] utilizationSecIdle 162
scalar OsgEarthNet.uav[38] utilizationEnergyMission 199889.06857681
scalar OsgEarthNet.uav[38] utilizationEnergyMaintenance 88974.761806488
scalar OsgEarthNet.uav[38] utilizationEnergyCharge 292062.32568359
scalar OsgEarthNet.uav[38] utilizationEnergyOverdrawMission 0
scalar OsgEarthNet.uav[38] utilizationEnergyOverdrawMaintenance 0
scalar OsgEarthNet.uav[38] utilizationCountMissions 64
scalar OsgEarthNet.uav[38] utilizationCountManeuversMission 1352
scalar OsgEarthNet.uav[38] utilizationCountManeuversMaintenance 128
scalar OsgEarthNet.uav[38] utilizationCountChargeState 64
scalar OsgEarthNet.uav[38] utilizationCountOverdrawnAfterMission 0
scalar OsgEarthNet.uav[38] utilizationCountIdleState 3
scalar OsgEarthNet.uav[38] utilizationFail 0
scalar OsgEarthNet.uav[38] simulationTime 259200
scalar OsgEarthNet.uav[39] utilizationSecMission 11952.758649072
scalar OsgEarthNet.uav[39] utilizationSecMaintenance 9502.6561902562
scalar OsgEarthNet.uav[39] utilizationSecCharge 81090
scalar OsgEarthNet.uav[39] utilizationSecIdle 156654.58416067
scalar OsgEarthNet.uav[39] utilizationEnergyMission 58980.83372879
scalar OsgEarthNet.uav[39] utilizationEnergyMaintenance 45202.014514923
scalar OsgEarthNet.uav[39] utilizationEnergyCharge 104572.44726562
scalar OsgEarthNet.uav[39] utilizationEnergyOverdrawMission 0
scalar OsgEarthNet.uav[39] utilizationEnergyOverdrawMaintenance 0
scalar OsgEarthNet.uav[39] utilizationCountMissions 23
scalar OsgEarthNet.uav[39] utilizationCountManeuversMission 489
scalar OsgEarthNet.uav[39] utilizationCountManeuversMaintenance 46
scalar OsgEarthNet.uav[39] utilizationCountChargeState 23
scalar OsgEarthNet.uav[39] utilizationCountOverdrawnAfterMission 0
scalar OsgEarthNet.uav[39] utilizationCountIdleState 24
scalar OsgEarthNet.uav[39] utilizationFail 0
scalar OsgEarthNet.uav[39] simulationTime 259200
scalar OsgEarthNet.uav[40] utilizationSecMission 16652.237947373
scalar OsgEarthNet.uav[40] utilizationSecMaintenance 11582.470313675
scalar OsgEarthNet.uav[40] utilizationSecCharge 105200
scalar OsgEarthNet.uav[40] utilizationSecIdle 125765.29073895
scalar OsgEarthNet.uav[40] utilizationEnergyMission 82286.463703156
scalar OsgEarthNet.uav[40] utilizationEnergyMaintenance 55095.422554016
scalar OsgEarthNet.uav[40] utilizationEnergyCharge 134869.96923828
scalar OsgEarthNet.uav[40] utilizationEnergyOverdrawMission 0
scalar OsgEarthNet.uav[40] utilizationEnergyOverdrawMaintenance 0
scalar OsgEarthNet.uav[40] utilizationCountMissions 30
scalar OsgEarthNet.uav[40] utilizationCountManeuversMission 617
scalar OsgEarthNet.uav[40] utilizationCountManeuversMaintenance 59
scalar OsgEarthNet.uav[40] utilizationCountChargeState 30
scalar OsgEarthNet.uav[40] utilizationCountOverdrawnAfterMission 0
scalar OsgEarthNet.uav[40] utilizationCountIdleState 31
scalar OsgEarthNet.uav[40] utilizationFail 0
scalar OsgEarthNet.uav[40] simulationTime 259200
scalar OsgEarthNet.uav[41] utilizationSecMission 18219.067324362
scalar OsgEarthNet.uav[41] utilizationSecMaintenance 13262.579072098
scalar OsgEarthNet.uav[41] utilizationSecCharge 122960
scalar OsgEarthNet.uav[41] utilizationSecIdle 104758.35260354
scalar OsgEarthNet.uav[41] utilizationEnergyMission 89686.880912646
scalar OsgEarthNet.uav[41] utilizationEnergyMaintenance 63194.29510498
scalar OsgEarthNet.uav[41] utilizationEnergyCharge 151521.94897461
scalar OsgEarthNet.uav[41] utilizationEnergyOverdrawMission 0
scalar OsgEarthNet.uav[41] utilizationEnergyOverdrawMaintenance 0
scalar OsgEarthNet.uav[41] utilizationCountMissions 39
scalar OsgEarthNet.uav[41] utilizationCountManeuversMission 620
scalar OsgEarthNet.uav[41] utilizationCountManeuversMaintenance 79
scalar OsgEarthNet.uav[41] utilizationCountChargeState 39
scalar OsgEarthNet.uav[41] utilizationCountOverdrawnAfterMission 0
scalar OsgEarthNet.uav[41] utilizationCountIdleState 40
scalar OsgEarthNet.uav[41] utilizationFail 0
scalar OsgEarthNet.uav[41] simulationTime 259200
scalar OsgEarthNet.uav[42] utilizationSecMission 41405.02567336
scalar OsgEarthNet.uav[42] utilizationSecMaintenance 18474.399430277
scalar OsgEarthNet.uav[42] utilizationSecCharge 194955.86314417
scalar OsgEarthNet.uav[42] utilizationSecIdle 4364.7107521909
scalar OsgEarthNet.uav[42] utilizationEnergyMission 201416.72136307
scalar OsgEarthNet.uav[42] utilizationEnergyMaintenance 85629.934101105
scalar OsgEarthNet.uav[42] utilizationEnergyCharge 284916.50024414
scalar OsgEarthNet.uav[42] utilizationEnergyOverdrawMission 0
scalar OsgEarthNet.uav[42] utilizationEnergyOverdrawMaintenance 0
scalar OsgEarthNet.uav[42] utilizationCountMissions 63
scalar OsgEarthNet.uav[42] utilizationCountManeuversMission 1300
scalar OsgEarthNet.uav[42] utilizationCountManeuversMaintenance 126
scalar OsgEarthNet.uav[42] utilizationCountChargeState 63
scalar OsgEarthNet.uav[42] utilizationCountOverdrawnAfterMission 0
scalar OsgEarthNet.uav[42] utilizationCountIdleState 8
scalar OsgEarthNet.uav[42] utilizationFail 0
scalar OsgEarthNet.uav[42] simulationTime 259200
scalar OsgEarthNet.uav[43] utilizationSecMission 16588.643061045
scalar OsgEarthNet.uav[43] utilizationSecMaintenance 9320.5507353536
scalar OsgEarthNet.uav[43] utilizationSecCharge 96270
scalar OsgEarthNet.uav[43] utilizationSecIdle 137020.8052036
scalar OsgEarthNet.uav[43] utilizationEnergyMission 78201.062610626
scalar OsgEarthNet.uav[43] utilizationEnergyMaintenance 44360.152591705
scalar OsgEarthNet.uav[43] utilizationEnergyCharge 124672.25976562
scalar OsgEarthNet.uav[43] utilizationEnergyOverdrawMission 0
scalar OsgEarthNet.uav[43] utilizationEnergyOverdrawMaintenance 0
scalar OsgEarthNet.uav[43] utilizationCountMissions 27
scalar OsgEarthNet.uav[43] utilizationCountManeuversMission 482
scalar OsgEarthNet.uav[43] utilizationCountManeuversMaintenance 54
scalar OsgEarthNet.uav[43] utilizationCountChargeState 27
scalar OsgEarthNet.uav[43] utilizationCountOverdrawnAfterMission 0
scalar OsgEarthNet.uav[43] utilizationCountIdleState 28
scalar OsgEarthNet.uav[43] utilizationFail 0
scalar OsgEarthNet.uav[43] simulationTime 259200
scalar OsgEarthNet.uav[44] utilizationSecMission 19733.955416363
scalar OsgEarthNet.uav[44] utilizationSecMaintenance 13792.376404989
scalar OsgEarthNet.uav[44] utilizationSecCharge 128240
scalar OsgEarthNet.uav[44] utilizationSecIdle 97433.667178648
scalar OsgEarthNet.uav[44] utilizationEnergyMission 96815.333438873
scalar OsgEarthNet.uav[44] utilizationEnergyMaintenance 65185.055218264
scalar OsgEarthNet.uav[44] utilizationEnergyCharge 159062.53222656
scalar OsgEarthNet.uav[44] utilizationEnergyOverdrawMission 0
scalar OsgEarthNet.uav[44] utilizationEnergyOverdrawMaintenance 0
scalar OsgEarthNet.uav[44] utilizationCountMissions 41
scalar OsgEarthNet.uav[44] utilizationCountManeuversMission 703
scalar OsgEarthNet.uav[44] utilizationCountManeuversMaintenance 82
scalar OsgEarthNet.uav[44] utilizationCountChargeState 40
scalar OsgEarthNet.uav[44] utilizationCountOverdrawnAfterMission 0
scalar OsgEarthNet.uav[44] utilizationCountIdleState 41
scalar OsgEarthNet.uav[44] utilizationFail 0
scalar OsgEarthNet.uav[44] simulationTime 259200
scalar OsgEarthNet.uav[45] utilizationSecMission 40680.965143499
scalar OsgEarthNet.uav[45] utilizationSecMaintenance 19136.372275441
scalar OsgEarthNet.uav[45] utilizationSecCharge 196449.13625423
scalar OsgEarthNet.uav[45] utilizationSecIdle 2933.5253268256
scalar OsgEarthNet.uav[45] utilizationEnergyMission 199676.19045639
scalar OsgEarthNet.uav[45] utilizationEnergyMaintenance 88978.44197464
scalar OsgEarthNet.uav[45] utilizationEnergyCharge 287549.29003906
scalar OsgEarthNet.uav[45] utilizationEnergyOverdrawMission 0
scalar OsgEarthNet.uav[45] utilizationEnergyOverdrawMaintenance 0
scalar OsgEarthNet.uav[45] utilizationCountMissions 63
scalar OsgEarthNet.uav[45] utilizationCountManeuversMission 1371
scalar OsgEarthNet.uav[45] utilizationCountManeuversMaintenance 126
scalar OsgEarthNet.uav[45] utilizationCountChargeState 63
scalar OsgEarthNet.uav[45] utilizationCountOverdrawnAfterMission 0
scalar OsgEarthNet.uav[45] utilizationCountIdleState 6
scalar OsgEarthNet.uav[45] utilizationFail 0
scalar OsgEarthNet.uav[45] simulationTime 259200
scalar OsgEarthNet.uav[46] utilizationSecMission 16408.126983544
scalar OsgEarthNet.uav[46] utilizationSecMaintenance 9386.7347348693
scalar OsgEarthNet.uav[46] utilizationSecCharge 95070
scalar OsgEarthNet.uav[46] utilizationSecIdle 138335.13728159
scalar OsgEarthNet.uav[46] utilizationEnergyMission 78375.395339966
scalar OsgEarthNet.uav[46] utilizationEnergyMaintenance 44658.680850983
scalar OsgEarthNet.uav[46] utilizationEnergyCharge 122366.13476562
scalar OsgEarthNet.uav[46] utilizationEnergyOverdrawMission 0
scalar OsgEarthNet.uav[46] utilizationEnergyOverdrawMaintenance 0
scalar OsgEarthNet.uav[46] utilizationCountMissions 27
scalar OsgEarthNet.uav[46] utilizationCountManeuversMission 482
scalar OsgEarthNet.uav[46] utilizationCountManeuversMaintenance 54
scalar OsgEarthNet.uav[46] utilizationCountChargeState 27
scalar OsgEarthNet.uav[46] utilizationCountOverdrawnAfterMission 0
scalar OsgEarthNet.uav[46] utilizationCountIdleState 28
scalar OsgEarthNet.uav[46] utilizationFail 0
scalar OsgEarthNet.uav[46] simulationTime 259200
scalar OsgEarthNet.uav[47] utilizationSecMission 20379.644279507
scalar OsgEarthNet.uav[47] utilizationSecMaintenance 13741.690845274
scalar OsgEarthNet.uav[47] utilizationSecCharge 132220
scalar OsgEarthNet.uav[47] utilizationSecIdle 92858.663875219
scalar OsgEarthNet.uav[47] utilizationEnergyMission 100091.0985527
scalar OsgEarthNet.uav[47] utilizationEnergyMaintenance 65356.29800415
scalar OsgEarthNet.uav[47] utilizationEnergyCharge 166033.62109375
scalar OsgEarthNet.uav[47] utilizationEnergyOverdrawMission 0
scalar OsgEarthNet.uav[47] utilizationEnergyOverdrawMaintenance 0
scalar OsgEarthNet.uav[47] utilizationCountMissions 40
scalar OsgEarthNet.uav[47] utilizationCountManeuversMission 714
scalar OsgEarthNet.uav[47] utilizationCountManeuversMaintenance 80
scalar OsgEarthNet.uav[47] utilizationCountChargeState 40
scalar OsgEarthNet.uav[47] utilizationCountOverdrawnAfterMission 0
scalar OsgEarthNet.uav[47] utilizationCountIdleState 41
scalar OsgEarthNet.uav[47] utilizationFail 0
scalar OsgEarthNet.uav[47] simulationTime 259200
scalar OsgEarthNet.uav[48] utilizationSecMission 41982.447933957
scalar OsgEarthNet.uav[48] utilizationSecMaintenance 18356.470899092
scalar OsgEarthNet.uav[48] utilizationSecCharge 195261.24335291
scalar OsgEarthNet.uav[48] utilizationSecIdle 3599.83681404
scalar OsgEarthNet.uav[48] utilizationEnergyMission 203711.36314392
scalar OsgEarthNet.uav[48] utilizationEnergyMaintenance 85779.63917923
scalar OsgEarthNet.uav[48] utilizationEnergyCharge 284781.46453857
scalar OsgEarthNet.uav[48] utilizationEnergyOverdrawMission 0
scalar OsgEarthNet.uav[48] utilizationEnergyOverdrawMaintenance 0
scalar OsgEarthNet.uav[48] utilizationCountMissions 63
scalar OsgEarthNet.uav[48] utilizationCountManeuversMission 1275
scalar OsgEarthNet.uav[48] utilizationCountManeuversMaintenance 126
scalar OsgEarthNet.uav[48] utilizationCountChargeState 63
scalar OsgEarthNet.uav[48] utilizationCountOverdrawnAfterMission 0
scalar OsgEarthNet.uav[48] utilizationCountIdleState 7
scalar OsgEarthNet.uav[48] utilizationFail 0
scalar OsgEarthNet.uav[48] simulationTime 259200
scalar OsgEarthNet.uav[49] utilizationSecMission 17548.643061045
scalar OsgEarthNet.uav[49] utilizationSecMaintenance 10215.414189053
scalar OsgEarthNet.uav[49] utilizationSecCharge 100993.9287499
scalar OsgEarthNet.uav[49] utilizationSecIdle 130442.013
scalar OsgEarthNet.uav[49] utilizationEnergyMission 84376.686645508
scalar OsgEarthNet.uav[49] utilizationEnergyMaintenance 47562.178462982
scalar OsgEarthNet.uav[49] utilizationEnergyCharge 131264.70532227
scalar OsgEarthNet.uav[49] utilizationEnergyOverdrawMission 0
scalar OsgEarthNet.uav[49] utilizationEnergyOverdrawMaintenance 0
scalar OsgEarthNet.uav[49] utilizationCountMissions 29
scalar OsgEarthNet.uav[49] utilizationCountManeuversMission 530
scalar OsgEarthNet.uav[49] utilizationCountManeuversMaintenance 58
scalar OsgEarthNet.uav[49] utilizationCountChargeState 29
scalar OsgEarthNet.uav[49] utilizationCountOverdrawnAfterMission 0
scalar OsgEarthNet.uav[49] utilizationCountIdleState 29
scalar OsgEarthNet.uav[49] utilizationFail 0
scalar OsgEarthNet.uav[49] simulationTime 259200
scalar OsgEarthNet.uav[50] utilizationSecMission 17127.501830963
scalar OsgEarthNet.uav[50] utilizationSecMaintenance 10196.405737948
scalar OsgEarthNet.uav[50] utilizationSecCharge 101780
scalar OsgEarthNet.uav[50] utilizationSecIdle 130096.09143109
scalar OsgEarthNet.uav[50] utilizationEnergyMission 82556.779109955
scalar OsgEarthNet.uav[50] utilizationEnergyMaintenance 47836.272499084
scalar OsgEarthNet.uav[50] utilizationEnergyCharge 130738.25683594
scalar OsgEarthNet.uav[50] utilizationEnergyOverdrawMission 0
scalar OsgEarthNet.uav[50] utilizationEnergyOverdrawMaintenance 0
scalar OsgEarthNet.uav[50] utilizationCountMissions 29
scalar OsgEarthNet.uav[50] utilizationCountManeuversMission 544
scalar OsgEarthNet.uav[50] utilizationCountManeuversMaintenance 58
scalar OsgEarthNet.uav[50] utilizationCountChargeState 29
scalar OsgEarthNet.uav[50] utilizationCountOverdrawnAfterMission 0
scalar OsgEarthNet.uav[50] utilizationCountIdleState 30
scalar OsgEarthNet.uav[50] utilizationFail 0
scalar OsgEarthNet.uav[50] simulationTime 259200
scalar OsgEarthNet.uav[51] utilizationSecMission 18809.396644253
scalar OsgEarthNet.uav[51] utilizationSecMaintenance 12628.267560884
scalar OsgEarthNet.uav[51] utilizationSecCharge 118892.31552006
scalar OsgEarthNet.uav[51] utilizationSecIdle 108870.01927481
scalar OsgEarthNet.uav[51] utilizationEnergyMission 92062.216121674
scalar OsgEarthNet.uav[51] utilizationEnergyMaintenance 59647.528186798
scalar OsgEarthNet.uav[51] utilizationEnergyCharge 147610.23968506
scalar OsgEarthNet.uav[51] utilizationEnergyOverdrawMission 0
scalar OsgEarthNet.uav[51] utilizationEnergyOverdrawMaintenance 0
scalar OsgEarthNet.uav[51] utilizationCountMissions 38
scalar OsgEarthNet.uav[51] utilizationCountManeuversMission 598
scalar OsgEarthNet.uav[51] utilizationCountManeuversMaintenance 76
scalar OsgEarthNet.uav[51] utilizationCountChargeState 38
scalar OsgEarthNet.uav[51] utilizationCountOverdrawnAfterMission 0
scalar OsgEarthNet.uav[51] utilizationCountIdleState 38
scalar OsgEarthNet.uav[51] utilizationFail 0
scalar OsgEarthNet.uav[51] simulationTime 259200
scalar OsgEarthNet.uav[52] utilizationSecMission 42357.770982409
scalar OsgEarthNet.uav[52] utilizationSecMaintenance 17730.355238577
scalar OsgEarthNet.uav[52] utilizationSecCharge 196139.86877901
scalar OsgEarthNet.uav[52] utilizationSecIdle 2972.004
scalar OsgEarthNet.uav[52] utilizationEnergyMission 204255.99019623
scalar OsgEarthNet.uav[52] utilizationEnergyMaintenance 82064.926094055
scalar OsgEarthNet.uav[52] utilizationEnergyCharge 284666.55566406
scalar OsgEarthNet.uav[52] utilizationEnergyOverdrawMission 0
scalar OsgEarthNet.uav[52] utilizationEnergyOverdrawMaintenance 0
scalar OsgEarthNet.uav[52] utilizationCountMissions 62
scalar OsgEarthNet.uav[52] utilizationCountManeuversMission 1245
scalar OsgEarthNet.uav[52] utilizationCountManeuversMaintenance 124
scalar OsgEarthNet.uav[52] utilizationCountChargeState 62
scalar OsgEarthNet.uav[52] utilizationCountOverdrawnAfterMission 0
scalar OsgEarthNet.uav[52] utilizationCountIdleState 4
scalar OsgEarthNet.uav[52] utilizationFail 0
scalar OsgEarthNet.uav[52] simulationTime 259200
scalar OsgEarthNet.uav[53] utilizationSecMission 13636.509564553
scalar OsgEarthNet.uav[53] utilizationSecMaintenance 8151.9177339146
scalar OsgEarthNet.uav[53] utilizationSecCharge 81080
scalar OsgEarthNet.uav[53] utilizationSecIdle 156331.57170153
scalar OsgEarthNet.uav[53] utilizationEnergyMission 65661.671066284
scalar OsgEarthNet.uav[53] utilizationEnergyMaintenance 38582.853595734
scalar OsgEarthNet.uav[53] utilizationEnergyCharge 104516.78173828
scalar OsgEarthNet.uav[53] utilizationEnergyOverdrawMission 0
scalar OsgEarthNet.uav[53] utilizationEnergyOverdrawMaintenance 0
scalar OsgEarthNet.uav[53] utilizationCountMissions 23
scalar OsgEarthNet.uav[53] utilizationCountManeuversMission 417
scalar OsgEarthNet.uav[53] utilizationCountManeuversMaintenance 46
scalar OsgEarthNet.uav[53] utilizationCountChargeState 23
scalar OsgEarthNet.uav[53] utilizationCountOverdrawnAfterMission 0
scalar OsgEarthNet.uav[53] utilizationCountIdleState 24
scalar OsgEarthNet.uav[53] utilizationFail 0
scalar OsgEarthNet.uav[53] simulationTime 259200
scalar OsgEarthNet.uav[54] utilizationSecMission 24475.499107123
scalar OsgEarthNet.uav[54] utilizationSecMaintenance 16821.920017942
scalar OsgEarthNet.uav[54] utilizationSecCharge 161300
scalar OsgEarthNet.uav[54] utilizationSecIdle 56602.579874936
scalar OsgEarthNet.uav[54] utilizationEnergyMission 119213.9336586
scalar OsgEarthNet.uav[54] utilizationEnergyMaintenance 80561.660312653
scalar OsgEarthNet.uav[54] utilizationEnergyCharge 200224.99316406
scalar OsgEarthNet.uav[54] utilizationEnergyOverdrawMission 0
scalar OsgEarthNet.uav[54] utilizationEnergyOverdrawMaintenance 0
scalar OsgEarthNet.uav[54] utilizationCountMissions 50
scalar OsgEarthNet.uav[54] utilizationCountManeuversMission 814
scalar OsgEarthNet.uav[54] utilizationCountManeuversMaintenance 100
scalar OsgEarthNet.uav[54] utilizationCountChargeState 50
scalar OsgEarthNet.uav[54] utilizationCountOverdrawnAfterMission 0
scalar OsgEarthNet.uav[54] utilizationCountIdleState 51
scalar OsgEarthNet.uav[54] utilizationFail 0
scalar OsgEarthNet.uav[54] simulationTime 259200
scalar OsgEarthNet.uav[55] utilizationSecMission 43240.99042913
scalar OsgEarthNet.uav[55] utilizationSecMaintenance 17808.887219692
scalar OsgEarthNet.uav[55] utilizationSecCharge 197978.12135118
scalar OsgEarthNet.uav[55] utilizationSecIdle 172
scalar OsgEarthNet.uav[55] utilizationEnergyMission 210465.41773276
scalar OsgEarthNet.uav[55] utilizationEnergyMaintenance 81221.510375977
scalar OsgEarthNet.uav[55] utilizationEnergyCharge 286734.8815918
scalar OsgEarthNet.uav[55] utilizationEnergyOverdrawMission 0
scalar OsgEarthNet.uav[55] utilizationEnergyOverdrawMaintenance 0
scalar OsgEarthNet.uav[55] utilizationCountMissions 64
scalar OsgEarthNet.uav[55] utilizationCountManeuversMission 1375
scalar OsgEarthNet.uav[55] utilizationCountManeuversMaintenance 127
scalar OsgEarthNet.uav[55] utilizationCountChargeState 64
scalar OsgEarthNet.uav[55] utilizationCountOverdrawnAfterMission 0
scalar OsgEarthNet.uav[55] utilizationCountIdleState 3
scalar OsgEarthNet.uav[55] utilizationFail 0
scalar OsgEarthNet.uav[55] simulationTime 259200
scalar OsgEarthNet.uav[56] utilizationSecMission 18246.251525803
scalar OsgEarthNet.uav[56] utilizationSecMaintenance 12581.737474197
scalar OsgEarthNet.uav[56] utilizationSecCharge 112820
scalar OsgEarthNet.uav[56] utilizationSecIdle 115552.01
scalar OsgEarthNet.uav[56] utilizationEnergyMission 90486.806606293
scalar OsgEarthNet.uav[56] utilizationEnergyMaintenance 60016.760215693
scalar OsgEarthNet.uav[56] utilizationEnergyCharge 145454.17773438
scalar OsgEarthNet.uav[56] utilizationEnergyOverdrawMission 0
scalar OsgEarthNet.uav[56] utilizationEnergyOverdrawMaintenance 0
scalar OsgEarthNet.uav[56] utilizationCountMissions 33
scalar OsgEarthNet.uav[56] utilizationCountManeuversMission 652
scalar OsgEarthNet.uav[56] utilizationCountManeuversMaintenance 66
scalar OsgEarthNet.uav[56] utilizationCountChargeState 32
scalar OsgEarthNet.uav[56] utilizationCountOverdrawnAfterMission 0
scalar OsgEarthNet.uav[56] utilizationCountIdleState 33
scalar OsgEarthNet.uav[56] utilizationFail 0
scalar OsgEarthNet.uav[56] simulationTime 259200
scalar OsgEarthNet.uav[57] utilizationSecMission 20768.059753355
scalar OsgEarthNet.uav[57] utilizationSecMaintenance 15421.745430017
scalar OsgEarthNet.uav[57] utilizationSecCharge 141196.43282846
scalar OsgEarthNet.uav[57] utilizationSecIdle 81813.760988168
scalar OsgEarthNet.uav[57] utilizationEnergyMission 102836.98905563
scalar OsgEarthNet.uav[57] utilizationEnergyMaintenance 73274.714290619
scalar OsgEarthNet.uav[57] utilizationEnergyCharge 176670.02075195
scalar OsgEarthNet.uav[57] utilizationEnergyOverdrawMission 0
scalar OsgEarthNet.uav[57] utilizationEnergyOverdrawMaintenance 0
scalar OsgEarthNet.uav[57] utilizationCountMissions 44
scalar OsgEarthNet.uav[57] utilizationCountManeuversMission 799
scalar OsgEarthNet.uav[57] utilizationCountManeuversMaintenance 88
scalar OsgEarthNet.uav[57] utilizationCountChargeState 44
scalar OsgEarthNet.uav[57] utilizationCountOverdrawnAfterMission 0
scalar OsgEarthNet.uav[57] utilizationCountIdleState 44
scalar OsgEarthNet.uav[57] utilizationFail 0
scalar OsgEarthNet.uav[57] simulationTime 259200
scalar OsgEarthNet.uav[58] utilizationSecMission 43041.314482918
scalar OsgEarthNet.uav[58] utilizationSecMaintenance 17744.32660388
scalar OsgEarthNet.uav[58] utilizationSecCharge 196162.68486382
scalar OsgEarthNet.uav[58] utilizationSecIdle 2251.673049383
scalar OsgEarthNet.uav[58] utilizationEnergyMission 207730.16179276
scalar OsgEarthNet.uav[58] utilizationEnergyMaintenance 81618.521621704
scalar OsgEarthNet.uav[58] utilizationEnergyCharge 285743.9510498
scalar OsgEarthNet.uav[58] utilizationEnergyOverdrawMission 0
scalar OsgEarthNet.uav[58] utilizationEnergyOverdrawMaintenance 0
scalar OsgEarthNet.uav[58] utilizationCountMissions 63
scalar OsgEarthNet.uav[58] utilizationCountManeuversMission 1285
scalar OsgEarthNet.uav[58] utilizationCountManeuversMaintenance 126
scalar OsgEarthNet.uav[58] utilizationCountChargeState 63
scalar OsgEarthNet.uav[58] utilizationCountOverdrawnAfterMission 0
scalar OsgEarthNet.uav[58] utilizationCountIdleState 7
scalar OsgEarthNet.uav[58] utilizationFail 0
scalar OsgEarthNet.uav[58] simulationTime 259200
scalar OsgEarthNet.uav[59] utilizationSecMission 41399.379409396
scalar OsgEarthNet.uav[59] utilizationSecMaintenance 19311.063547827
scalar OsgEarthNet.uav[59] utilizationSecCharge 197837.55604278
scalar OsgEarthNet.uav[59] utilizationSecIdle 652
scalar OsgEarthNet.uav[59] utilizationEnergyMission 204835.37702179
scalar OsgEarthNet.uav[59] utilizationEnergyMaintenance 89499.431549072
scalar OsgEarthNet.uav[59] utilizationEnergyCharge 287608.43511963
scalar OsgEarthNet.uav[59] utilizationEnergyOverdrawMission 0
scalar OsgEarthNet.uav[59] utilizationEnergyOverdrawMaintenance 0
scalar OsgEarthNet.uav[59] utilizationCountMissions 64
scalar OsgEarthNet.uav[59] utilizationCountManeuversMission 1419
scalar OsgEarthNet.uav[59] utilizationCountManeuversMaintenance 127
scalar OsgEarthNet.uav[59] utilizationCountChargeState 64
scalar OsgEarthNet.uav[59] utilizationCountOverdrawnAfterMission 0
scalar OsgEarthNet.uav[59] utilizationCountIdleState 7
scalar OsgEarthNet.uav[59] utilizationFail 0
scalar OsgEarthNet.uav[59] simulationTime 259200
scalar OsgEarthNet.uav[60] utilizationSecMission 19077.978019872
scalar OsgEarthNet.uav[60] utilizationSecMaintenance 11664.284933163
scalar OsgEarthNet.uav[60] utilizationSecCharge 113826.22238602
scalar OsgEarthNet.uav[60] utilizationSecIdle 114631.51366095
scalar OsgEarthNet.uav[60] utilizationEnergyMission 92569.895137787
scalar OsgEarthNet.uav[60] utilizationEnergyMaintenance 55329.536399841
scalar OsgEarthNet.uav[60] utilizationEnergyCharge 147280.64550781
scalar OsgEarthNet.uav[60] utilizationEnergyOverdrawMission 0
scalar OsgEarthNet.uav[60] utilizationEnergyOverdrawMaintenance 0
scalar OsgEarthNet.uav[60] utilizationCountMissions 33
scalar OsgEarthNet.uav[60] utilizationCountManeuversMission 603
scalar OsgEarthNet.uav[60] utilizationCountManeuversMaintenance 66
scalar OsgEarthNet.uav[60] utilizationCountChargeState 33
scalar OsgEarthNet.uav[60] utilizationCountOverdrawnAfterMission 0
scalar OsgEarthNet.uav[60] utilizationCountIdleState 33
scalar OsgEarthNet.uav[60] utilizationFail 0
scalar OsgEarthNet.uav[60] simulationTime 259200
scalar OsgEarthNet.uav[61] utilizationSecMission 24915.499107123
scalar OsgEarthNet.uav[61] utilizationSecMaintenance 17207.309667436
scalar OsgEarthNet.uav[61] utilizationSecCharge 163115.19022544
scalar OsgEarthNet.uav[61] utilizationSecIdle 53962
scalar OsgEarthNet.uav[61] utilizationEnergyMission 121344.5313797
scalar OsgEarthNet.uav[61] utilizationEnergyMaintenance 82495.567905426
scalar OsgEarthNet.uav[61] utilizationEnergyCharge 203744.39526367
scalar OsgEarthNet.uav[61] utilizationEnergyOverdrawMission 0
scalar OsgEarthNet.uav[61] utilizationEnergyOverdrawMaintenance 0
scalar OsgEarthNet.uav[61] utilizationCountMissions 51
scalar OsgEarthNet.uav[61] utilizationCountManeuversMission 836
scalar OsgEarthNet.uav[61] utilizationCountManeuversMaintenance 102
scalar OsgEarthNet.uav[61] utilizationCountChargeState 51
scalar OsgEarthNet.uav[61] utilizationCountOverdrawnAfterMission 0
scalar OsgEarthNet.uav[61] utilizationCountIdleState 51
scalar OsgEarthNet.uav[61] utilizationFail 0
scalar OsgEarthNet.uav[61] simulationTime 259200
scalar OsgEarthNet.uav[62] utilizationSecMission 43454.728984698
scalar OsgEarthNet.uav[62] utilizationSecMaintenance 16802.227455043
scalar OsgEarthNet.uav[62] utilizationSecCharge 198261.04256026
scalar OsgEarthNet.uav[62] utilizationSecIdle 682
scalar OsgEarthNet.uav[62] utilizationEnergyMission 208186.88586134
scalar OsgEarthNet.uav[62] utilizationEnergyMaintenance 78383.042457581
scalar OsgEarthNet.uav[62] utilizationEnergyCharge 285491.29980469
scalar OsgEarthNet.uav[62] utilizationEnergyOverdrawMission 0
scalar OsgEarthNet.uav[62] utilizationEnergyOverdrawMaintenance 0
scalar OsgEarthNet.uav[62] utilizationCountMissions 62
scalar OsgEarthNet.uav[62] utilizationCountManeuversMission 1174
scalar OsgEarthNet.uav[62] utilizationCountManeuversMaintenance 123
scalar OsgEarthNet.uav[62] utilizationCountChargeState 62
scalar OsgEarthNet.uav[62] utilizationCountOverdrawnAfterMission 0
scalar OsgEarthNet.uav[62] utilizationCountIdleState 9
scalar OsgEarthNet.uav[62] utilizationFail 0
scalar OsgEarthNet.uav[62] simulationTime 259200
scalar OsgEarthNet.uav[63] utilizationSecMission 18739.744402534
scalar OsgEarthNet.uav[63] utilizationSecMaintenance 10184.151329517
scalar OsgEarthNet.uav[63] utilizationSecCharge 104800.83269383
scalar OsgEarthNet.uav[63] utilizationSecIdle 125475.27057412
scalar OsgEarthNet.uav[63] utilizationEnergyMission 89901.922554016
scalar OsgEarthNet.uav[63] utilizationEnergyMaintenance 47887.762866974
scalar OsgEarthNet.uav[63] utilizationEnergyCharge 136346.22998047
scalar OsgEarthNet.uav[63] utilizationEnergyOverdrawMission 0
scalar OsgEarthNet.uav[63] utilizationEnergyOverdrawMaintenance 0
scalar OsgEarthNet.uav[63] utilizationCountMissions 30
scalar OsgEarthNet.uav[63] utilizationCountManeuversMission 525
scalar OsgEarthNet.uav[63] utilizationCountManeuversMaintenance 60
scalar OsgEarthNet.uav[63] utilizationCountChargeState 30
scalar OsgEarthNet.uav[63] utilizationCountOverdrawnAfterMission 0
scalar OsgEarthNet.uav[63] utilizationCountIdleState 30
scalar OsgEarthNet.uav[63] utilizationFail 0
scalar OsgEarthNet.uav[63] simulationTime 259200
scalar OsgEarthNet.uav[64] utilizationSecMission 21322.510440227
scalar OsgEarthNet.uav[64] utilizationSecMaintenance 14915.476559773
scalar OsgEarthNet.uav[64] utilizationSecCharge 140950
scalar OsgEarthNet.uav[64] utilizationSecIdle 82012.012
scalar OsgEarthNet.uav[64] utilizationEnergyMission 103228.24817657
scalar OsgEarthNet.uav[64] utilizationEnergyMaintenance 71446.241291431
scalar OsgEarthNet.uav[64] utilizationEnergyCharge 171243.92480469
scalar OsgEarthNet.uav[64] utilizationEnergyOverdrawMission 0
scalar OsgEarthNet.uav[64] utilizationEnergyOverdrawMaintenance 0
scalar OsgEarthNet.uav[64] utilizationCountMissions 47
scalar OsgEarthNet.uav[64] utilizationCountManeuversMission 618
scalar OsgEarthNet.uav[64] utilizationCountManeuversMaintenance 94
scalar OsgEarthNet.uav[64] utilizationCountChargeState 46
scalar OsgEarthNet.uav[64] utilizationCountOverdrawnAfterMission 0
scalar OsgEarthNet.uav[64] utilizationCountIdleState 47
scalar OsgEarthNet.uav[64] utilizationFail 0
scalar OsgEarthNet.uav[64] simulationTime 259200
scalar OsgEarthNet.uav[65] utilizationSecMission 40835.426738275
scalar OsgEarthNet.uav[65] utilizationSecMaintenance 19233.773300978
scalar OsgEarthNet.uav[65] utilizationSecCharge 194978.79296075
scalar OsgEarthNet.uav[65] utilizationSecIdle 4152.006
[...]
scalar OsgEarthNet.uav[130] utilizationSecIdle 259199.999
scalar OsgEarthNet.uav[130] utilizationEnergyMission 0
scalar OsgEarthNet.uav[130] utilizationEnergyMaintenance 0
scalar OsgEarthNet.uav[130] utilizationEnergyCharge 0
scalar OsgEarthNet.uav[130] utilizationEnergyOverdrawMission 0
scalar OsgEarthNet.uav[130] utilizationEnergyOverdrawMaintenance 0
scalar OsgEarthNet.uav[130] utilizationCountMissions 0
scalar OsgEarthNet.uav[130] utilizationCountManeuversMission 0
scalar OsgEarthNet.uav[130] utilizationCountManeuversMaintenance 0
scalar OsgEarthNet.uav[130] utilizationCountChargeState 0
scalar OsgEarthNet.uav[130] utilizationCountOverdrawnAfterMission 0
scalar OsgEarthNet.uav[130] utilizationCountIdleState 1
scalar OsgEarthNet.uav[130] utilizationFail 0
scalar OsgEarthNet.uav[130] simulationTime 259200
scalar OsgEarthNet.uav[131] utilizationSecMission 0
scalar OsgEarthNet.uav[131] utilizationSecMaintenance 0
scalar OsgEarthNet.uav[131] utilizationSecCharge 0
scalar OsgEarthNet.uav[131] utilizationSecIdle 259199.999
scalar OsgEarthNet.uav[131] utilizationEnergyMission 0
scalar OsgEarthNet.uav[131] utilizationEnergyMaintenance 0
scalar OsgEarthNet.uav[131] utilizationEnergyCharge 0
scalar OsgEarthNet.uav[131] utilizationEnergyOverdrawMission 0
scalar OsgEarthNet.uav[131] utilizationEnergyOverdrawMaintenance 0
scalar OsgEarthNet.uav[131] utilizationCountMissions 0
scalar OsgEarthNet.uav[131] utilizationCountManeuversMission 0
scalar OsgEarthNet.uav[131] utilizationCountManeuversMaintenance 0
scalar OsgEarthNet.uav[131] utilizationCountChargeState 0
scalar OsgEarthNet.uav[131] utilizationCountOverdrawnAfterMission 0
scalar OsgEarthNet.uav[131] utilizationCountIdleState 1
scalar OsgEarthNet.uav[131] utilizationFail 0
scalar OsgEarthNet.uav[131] simulationTime 259200
scalar OsgEarthNet.uav[132] utilizationSecMission 0
scalar OsgEarthNet.uav[132] utilizationSecMaintenance 0
scalar OsgEarthNet.uav[132] utilizationSecCharge 0
scalar OsgEarthNet.uav[132] utilizationSecIdle 259199.999
scalar OsgEarthNet.uav[132] utilizationEnergyMission 0
scalar OsgEarthNet.uav[132] utilizationEnergyMaintenance 0
scalar OsgEarthNet.uav[132] utilizationEnergyCharge 0
scalar OsgEarthNet.uav[132] utilizationEnergyOverdrawMission 0
scalar OsgEarthNet.uav[132] utilizationEnergyOverdrawMaintenance 0
scalar OsgEarthNet.uav[132] utilizationCountMissions 0
scalar OsgEarthNet.uav[132] utilizationCountManeuversMission 0
scalar OsgEarthNet.uav[132] utilizationCountManeuversMaintenance 0
scalar OsgEarthNet.uav[132] utilizationCountChargeState 0
scalar OsgEarthNet.uav[132] utilizationCountOverdrawnAfterMission 0
scalar OsgEarthNet.uav[132] utilizationCountIdleState 1
scalar OsgEarthNet.uav[132] utilizationFail 0
scalar OsgEarthNet.uav[132] simulationTime 259200
scalar OsgEarthNet.uav[133] utilizationSecMission 0
scalar OsgEarthNet.uav[133] utilizationSecMaintenance 0
scalar OsgEarthNet.uav[133] utilizationSecCharge 0
scalar OsgEarthNet.uav[133] utilizationSecIdle 259199.999
scalar OsgEarthNet.uav[133] utilizationEnergyMission 0
scalar OsgEarthNet.uav[133] utilizationEnergyMaintenance 0
scalar OsgEarthNet.uav[133] utilizationEnergyCharge 0
scalar OsgEarthNet.uav[133] utilizationEnergyOverdrawMission 0
scalar OsgEarthNet.uav[133] utilizationEnergyOverdrawMaintenance 0
scalar OsgEarthNet.uav[133] utilizationCountMissions 0
scalar OsgEarthNet.uav[133] utilizationCountManeuversMission 0
scalar OsgEarthNet.uav[133] utilizationCountManeuversMaintenance 0
scalar OsgEarthNet.uav[133] utilizationCountChargeState 0
scalar OsgEarthNet.uav[133] utilizationCountOverdrawnAfterMission 0
scalar OsgEarthNet.uav[133] utilizationCountIdleState 1
scalar OsgEarthNet.uav[133] utilizationFail 0
scalar OsgEarthNet.uav[133] simulationTime 259200
scalar OsgEarthNet.uav[134] utilizationSecMission 0
scalar OsgEarthNet.uav[134] utilizationSecMaintenance 0
scalar OsgEarthNet.uav[134] utilizationSecCharge 0
scalar OsgEarthNet.uav[134] utilizationSecIdle 259199.999
scalar OsgEarthNet.uav[134] utilizationEnergyMission 0
scalar OsgEarthNet.uav[134] utilizationEnergyMaintenance 0
scalar OsgEarthNet.uav[134] utilizationEnergyCharge 0
scalar OsgEarthNet.uav[134] utilizationEnergyOverdrawMission 0
scalar OsgEarthNet.uav[134] utilizationEnergyOverdrawMaintenance 0
scalar OsgEarthNet.uav[134] utilizationCountMissions 0
scalar OsgEarthNet.uav[134] utilizationCountManeuversMission 0
scalar OsgEarthNet.uav[134] utilizationCountManeuversMaintenance 0
scalar OsgEarthNet.uav[134] utilizationCountChargeState 0
scalar OsgEarthNet.uav[134] utilizationCountOverdrawnAfterMission 0
scalar OsgEarthNet.uav[134] utilizationCountIdleState 1
scalar OsgEarthNet.uav[134] utilizationFail 0
scalar OsgEarthNet.uav[134] simulationTime 259200
scalar OsgEarthNet.uav[135] utilizationSecMission 0
scalar OsgEarthNet.uav[135] utilizationSecMaintenance 0
scalar OsgEarthNet.uav[135] utilizationSecCharge 0
scalar OsgEarthNet.uav[135] utilizationSecIdle 259199.999
scalar OsgEarthNet.uav[135] utilizationEnergyMission 0
scalar OsgEarthNet.uav[135] utilizationEnergyMaintenance 0
scalar OsgEarthNet.uav[135] utilizationEnergyCharge 0
scalar OsgEarthNet.uav[135] utilizationEnergyOverdrawMission 0
scalar OsgEarthNet.uav[135] utilizationEnergyOverdrawMaintenance 0
scalar OsgEarthNet.uav[135] utilizationCountMissions 0
scalar OsgEarthNet.uav[135] utilizationCountManeuversMission 0
scalar OsgEarthNet.uav[135] utilizationCountManeuversMaintenance 0
scalar OsgEarthNet.uav[135] utilizationCountChargeState 0
scalar OsgEarthNet.uav[135] utilizationCountOverdrawnAfterMission 0
scalar OsgEarthNet.uav[135] utilizationCountIdleState 1
scalar OsgEarthNet.uav[135] utilizationFail 0
scalar OsgEarthNet.uav[135] simulationTime 259200
scalar OsgEarthNet.uav[136] utilizationSecMission 0
scalar OsgEarthNet.uav[136] utilizationSecMaintenance 0
scalar OsgEarthNet.uav[136] utilizationSecCharge 0
scalar OsgEarthNet.uav[136] utilizationSecIdle 259199.999
scalar OsgEarthNet.uav[136] utilizationEnergyMission 0
scalar OsgEarthNet.uav[136] utilizationEnergyMaintenance 0
scalar OsgEarthNet.uav[136] utilizationEnergyCharge 0
scalar OsgEarthNet.uav[136] utilizationEnergyOverdrawMission 0
scalar OsgEarthNet.uav[136] utilizationEnergyOverdrawMaintenance 0
scalar OsgEarthNet.uav[136] utilizationCountMissions 0
scalar OsgEarthNet.uav[136] utilizationCountManeuversMission 0
scalar OsgEarthNet.uav[136] utilizationCountManeuversMaintenance 0
scalar OsgEarthNet.uav[136] utilizationCountChargeState 0
scalar OsgEarthNet.uav[136] utilizationCountOverdrawnAfterMission 0
scalar OsgEarthNet.uav[136] utilizationCountIdleState 1
scalar OsgEarthNet.uav[136] utilizationFail 0
scalar OsgEarthNet.uav[136] simulationTime 259200
scalar OsgEarthNet.uav[137] utilizationSecMission 0
scalar OsgEarthNet.uav[137] utilizationSecMaintenance 0
scalar OsgEarthNet.uav[137] utilizationSecCharge 0
scalar OsgEarthNet.uav[137] utilizationSecIdle 259199.999
scalar OsgEarthNet.uav[137] utilizationEnergyMission 0
scalar OsgEarthNet.uav[137] utilizationEnergyMaintenance 0
scalar OsgEarthNet.uav[137] utilizationEnergyCharge 0
scalar OsgEarthNet.uav[137] utilizationEnergyOverdrawMission 0
scalar OsgEarthNet.uav[137] utilizationEnergyOverdrawMaintenance 0
scalar OsgEarthNet.uav[137] utilizationCountMissions 0
scalar OsgEarthNet.uav[137] utilizationCountManeuversMission 0
scalar OsgEarthNet.uav[137] utilizationCountManeuversMaintenance 0
scalar OsgEarthNet.uav[137] utilizationCountChargeState 0
scalar OsgEarthNet.uav[137] utilizationCountOverdrawnAfterMission 0
scalar OsgEarthNet.uav[137] utilizationCountIdleState 1
scalar OsgEarthNet.uav[137] utilizationFail 0
scalar OsgEarthNet.uav[137] simulationTime 259200
scalar OsgEarthNet.uav[138] utilizationSecMission 0
scalar OsgEarthNet.uav[138] utilizationSecMaintenance 0
scalar OsgEarthNet.uav[138] utilizationSecCharge 0
scalar OsgEarthNet.uav[138] utilizationSecIdle 259199.999
scalar OsgEarthNet.uav[138] utilizationEnergyMission 0
scalar OsgEarthNet.uav[138] utilizationEnergyMaintenance 0
scalar OsgEarthNet.uav[138] utilizationEnergyCharge 0
scalar OsgEarthNet.uav[138] utilizationEnergyOverdrawMission 0
scalar OsgEarthNet.uav[138] utilizationEnergyOverdrawMaintenance 0
scalar OsgEarthNet.uav[138] utilizationCountMissions 0
scalar OsgEarthNet.uav[138] utilizationCountManeuversMission 0
scalar OsgEarthNet.uav[138] utilizationCountManeuversMaintenance 0
scalar OsgEarthNet.uav[138] utilizationCountChargeState 0
scalar OsgEarthNet.uav[138] utilizationCountOverdrawnAfterMission 0
scalar OsgEarthNet.uav[138] utilizationCountIdleState 1
scalar OsgEarthNet.uav[138] utilizationFail 0
scalar OsgEarthNet.uav[138] simulationTime 259200
scalar OsgEarthNet.uav[139] utilizationSecMission 0
scalar OsgEarthNet.uav[139] utilizationSecMaintenance 0
scalar OsgEarthNet.uav[139] utilizationSecCharge 0
scalar OsgEarthNet.uav[139] utilizationSecIdle 259199.999
scalar OsgEarthNet.uav[139] utilizationEnergyMission 0
scalar OsgEarthNet.uav[139] utilizationEnergyMaintenance 0
scalar OsgEarthNet.uav[139] utilizationEnergyCharge 0
scalar OsgEarthNet.uav[139] utilizationEnergyOverdrawMission 0
scalar OsgEarthNet.uav[139] utilizationEnergyOverdrawMaintenance 0
scalar OsgEarthNet.uav[139] utilizationCountMissions 0
scalar OsgEarthNet.uav[139] utilizationCountManeuversMission 0
scalar OsgEarthNet.uav[139] utilizationCountManeuversMaintenance 0
scalar OsgEarthNet.uav[139] utilizationCountChargeState 0
scalar OsgEarthNet.uav[139] utilizationCountOverdrawnAfterMission 0
scalar OsgEarthNet.uav[139] utilizationCountIdleState 1
scalar OsgEarthNet.uav[139] utilizationFail 0
scalar OsgEarthNet.uav[139] simulationTime 259200
scalar OsgEarthNet.uav[140] utilizationSecMission 0
scalar OsgEarthNet.uav[140] utilizationSecMaintenance 0
scalar OsgEarthNet.uav[140] utilizationSecCharge 0
scalar OsgEarthNet.uav[140] utilizationSecIdle 259199.999
scalar OsgEarthNet.uav[140] utilizationEnergyMission 0
scalar OsgEarthNet.uav[140] utilizationEnergyMaintenance 0
scalar OsgEarthNet.uav[140] utilizationEnergyCharge 0
scalar OsgEarthNet.uav[140] utilizationEnergyOverdrawMission 0
scalar OsgEarthNet.uav[140] utilizationEnergyOverdrawMaintenance 0
scalar OsgEarthNet.uav[140] utilizationCountMissions 0
scalar OsgEarthNet.uav[140] utilizationCountManeuversMission 0
scalar OsgEarthNet.uav[140] utilizationCountManeuversMaintenance 0
scalar OsgEarthNet.uav[140] utilizationCountChargeState 0
scalar OsgEarthNet.uav[140] utilizationCountOverdrawnAfterMission 0
scalar OsgEarthNet.uav[140] utilizationCountIdleState 1
scalar OsgEarthNet.uav[140] utilizationFail 0
scalar OsgEarthNet.uav[140] simulationTime 259200
scalar OsgEarthNet.uav[141] utilizationSecMission 0
scalar OsgEarthNet.uav[141] utilizationSecMaintenance 0
scalar OsgEarthNet.uav[141] utilizationSecCharge 0
scalar OsgEarthNet.uav[141] utilizationSecIdle 259199.999
scalar OsgEarthNet.uav[141] utilizationEnergyMission 0
scalar OsgEarthNet.uav[141] utilizationEnergyMaintenance 0
scalar OsgEarthNet.uav[141] utilizationEnergyCharge 0
scalar OsgEarthNet.uav[141] utilizationEnergyOverdrawMission 0
scalar OsgEarthNet.uav[141] utilizationEnergyOverdrawMaintenance 0
scalar OsgEarthNet.uav[141] utilizationCountMissions 0
scalar OsgEarthNet.uav[141] utilizationCountManeuversMission 0
scalar OsgEarthNet.uav[141] utilizationCountManeuversMaintenance 0
scalar OsgEarthNet.uav[141] utilizationCountChargeState 0
scalar OsgEarthNet.uav[141] utilizationCountOverdrawnAfterMission 0
scalar OsgEarthNet.uav[141] utilizationCountIdleState 1
scalar OsgEarthNet.uav[141] utilizationFail 0
scalar OsgEarthNet.uav[141] simulationTime 259200
scalar OsgEarthNet.uav[142] utilizationSecMission 0
scalar OsgEarthNet.uav[142] utilizationSecMaintenance 0
scalar OsgEarthNet.uav[142] utilizationSecCharge 0
scalar OsgEarthNet.uav[142] utilizationSecIdle 259199.999
scalar OsgEarthNet.uav[142] utilizationEnergyMission 0
scalar OsgEarthNet.uav[142] utilizationEnergyMaintenance 0
scalar OsgEarthNet.uav[142] utilizationEnergyCharge 0
scalar OsgEarthNet.uav[142] utilizationEnergyOverdrawMission 0
scalar OsgEarthNet.uav[142] utilizationEnergyOverdrawMaintenance 0
scalar OsgEarthNet.uav[142] utilizationCountMissions 0
scalar OsgEarthNet.uav[142] utilizationCountManeuversMission 0
scalar OsgEarthNet.uav[142] utilizationCountManeuversMaintenance 0
scalar OsgEarthNet.uav[142] utilizationCountChargeState 0
scalar OsgEarthNet.uav[142] utilizationCountOverdrawnAfterMission 0
scalar OsgEarthNet.uav[142] utilizationCountIdleState 1
scalar OsgEarthNet.uav[142] utilizationFail 0
scalar OsgEarthNet.uav[142] simulationTime 259200
scalar OsgEarthNet.uav[143] utilizationSecMission 0
scalar OsgEarthNet.uav[143] utilizationSecMaintenance 0
scalar OsgEarthNet.uav[143] utilizationSecCharge 0
scalar OsgEarthNet.uav[143] utilizationSecIdle 259199.999
scalar OsgEarthNet.uav[143] utilizationEnergyMission 0
scalar OsgEarthNet.uav[143] utilizationEnergyMaintenance 0
scalar OsgEarthNet.uav[143] utilizationEnergyCharge 0
scalar OsgEarthNet.uav[143] utilizationEnergyOverdrawMission 0
scalar OsgEarthNet.uav[143] utilizationEnergyOverdrawMaintenance 0
scalar OsgEarthNet.uav[143] utilizationCountMissions 0
scalar OsgEarthNet.uav[143] utilizationCountManeuversMission 0
scalar OsgEarthNet.uav[143] utilizationCountManeuversMaintenance 0
scalar OsgEarthNet.uav[143] utilizationCountChargeState 0
scalar OsgEarthNet.uav[143] utilizationCountOverdrawnAfterMission 0
scalar OsgEarthNet.uav[143] utilizationCountIdleState 1
scalar OsgEarthNet.uav[143] utilizationFail 0
scalar OsgEarthNet.uav[143] simulationTime 259200
scalar OsgEarthNet.uav[144] utilizationSecMission 0
scalar OsgEarthNet.uav[144] utilizationSecMaintenance 0
scalar OsgEarthNet.uav[144] utilizationSecCharge 0
scalar OsgEarthNet.uav[144] utilizationSecIdle 259199.999
scalar OsgEarthNet.uav[144] utilizationEnergyMission 0
scalar OsgEarthNet.uav[144] utilizationEnergyMaintenance 0
scalar OsgEarthNet.uav[144] utilizationEnergyCharge 0
scalar OsgEarthNet.uav[144] utilizationEnergyOverdrawMission 0
scalar OsgEarthNet.uav[144] utilizationEnergyOverdrawMaintenance 0
scalar OsgEarthNet.uav[144] utilizationCountMissions 0
scalar OsgEarthNet.uav[144] utilizationCountManeuversMission 0
scalar OsgEarthNet.uav[144] utilizationCountManeuversMaintenance 0
scalar OsgEarthNet.uav[144] utilizationCountChargeState 0
scalar OsgEarthNet.uav[144] utilizationCountOverdrawnAfterMission 0
scalar OsgEarthNet.uav[144] utilizationCountIdleState 1
scalar OsgEarthNet.uav[144] utilizationFail 0
scalar OsgEarthNet.uav[144] simulationTime 259200
scalar OsgEarthNet.uav[145] utilizationSecMission 0
scalar OsgEarthNet.uav[145] utilizationSecMaintenance 0
scalar OsgEarthNet.uav[145] utilizationSecCharge 0
scalar OsgEarthNet.uav[145] utilizationSecIdle 259199.999
scalar OsgEarthNet.uav[145] utilizationEnergyMission 0
scalar OsgEarthNet.uav[145] utilizationEnergyMaintenance 0
scalar OsgEarthNet.uav[145] utilizationEnergyCharge 0
scalar OsgEarthNet.uav[145] utilizationEnergyOverdrawMission 0
scalar OsgEarthNet.uav[145] utilizationEnergyOverdrawMaintenance 0
scalar OsgEarthNet.uav[145] utilizationCountMissions 0
scalar OsgEarthNet.uav[145] utilizationCountManeuversMission 0
scalar OsgEarthNet.uav[145] utilizationCountManeuversMaintenance 0
scalar OsgEarthNet.uav[145] utilizationCountChargeState 0
scalar OsgEarthNet.uav[145] utilizationCountOverdrawnAfterMission 0
scalar OsgEarthNet.uav[145] utilizationCountIdleState 1
scalar OsgEarthNet.uav[145] utilizationFail 0
scalar OsgEarthNet.uav[145] simulationTime 259200
scalar OsgEarthNet.uav[146] utilizationSecMission 0
scalar OsgEarthNet.uav[146] utilizationSecMaintenance 0
scalar OsgEarthNet.uav[146] utilizationSecCharge 0
scalar OsgEarthNet.uav[146] utilizationSecIdle 259199.999
scalar OsgEarthNet.uav[146] utilizationEnergyMission 0
scalar OsgEarthNet.uav[146] utilizationEnergyMaintenance 0
scalar OsgEarthNet.uav[146] utilizationEnergyCharge 0
scalar OsgEarthNet.uav[146] utilizationEnergyOverdrawMission 0
scalar OsgEarthNet.uav[146] utilizationEnergyOverdrawMaintenance 0
scalar OsgEarthNet.uav[146] utilizationCountMissions 0
scalar OsgEarthNet.uav[146] utilizationCountManeuversMission 0
scalar OsgEarthNet.uav[146] utilizationCountManeuversMaintenance 0
scalar OsgEarthNet.uav[146] utilizationCountChargeState 0
scalar OsgEarthNet.uav[146] utilizationCountOverdrawnAfterMission 0
scalar OsgEarthNet.uav[146] utilizationCountIdleState 1
scalar OsgEarthNet.uav[146] utilizationFail 0
scalar OsgEarthNet.uav[146] simulationTime 259200
scalar OsgEarthNet.uav[147] utilizationSecMission 0
scalar OsgEarthNet.uav[147] utilizationSecMaintenance 0
scalar OsgEarthNet.uav[147] utilizationSecCharge 0
scalar OsgEarthNet.uav[147] utilizationSecIdle 259199.999
scalar OsgEarthNet.uav[147] utilizationEnergyMission 0
scalar OsgEarthNet.uav[147] utilizationEnergyMaintenance 0
scalar OsgEarthNet.uav[147] utilizationEnergyCharge 0
scalar OsgEarthNet.uav[147] utilizationEnergyOverdrawMission 0
scalar OsgEarthNet.uav[147] utilizationEnergyOverdrawMaintenance 0
scalar OsgEarthNet.uav[147] utilizationCountMissions 0
scalar OsgEarthNet.uav[147] utilizationCountManeuversMission 0
scalar OsgEarthNet.uav[147] utilizationCountManeuversMaintenance 0
scalar OsgEarthNet.uav[147] utilizationCountChargeState 0
scalar OsgEarthNet.uav[147] utilizationCountOverdrawnAfterMission 0
scalar OsgEarthNet.uav[147] utilizationCountIdleState 1
scalar OsgEarthNet.uav[147] utilizationFail 0
scalar OsgEarthNet.uav[147] simulationTime 259200
scalar OsgEarthNet.uav[148] utilizationSecMission 0
scalar OsgEarthNet.uav[148] utilizationSecMaintenance 0
scalar OsgEarthNet.uav[148] utilizationSecCharge 0
scalar OsgEarthNet.uav[148] utilizationSecIdle 259199.999
scalar OsgEarthNet.uav[148] utilizationEnergyMission 0
scalar OsgEarthNet.uav[148] utilizationEnergyMaintenance 0
scalar OsgEarthNet.uav[148] utilizationEnergyCharge 0
scalar OsgEarthNet.uav[148] utilizationEnergyOverdrawMission 0
scalar OsgEarthNet.uav[148] utilizationEnergyOverdrawMaintenance 0
scalar OsgEarthNet.uav[148] utilizationCountMissions 0
scalar OsgEarthNet.uav[148] utilizationCountManeuversMission 0
scalar OsgEarthNet.uav[148] utilizationCountManeuversMaintenance 0
scalar OsgEarthNet.uav[148] utilizationCountChargeState 0
scalar OsgEarthNet.uav[148] utilizationCountOverdrawnAfterMission 0
scalar OsgEarthNet.uav[148] utilizationCountIdleState 1
scalar OsgEarthNet.uav[148] utilizationFail 0
scalar OsgEarthNet.uav[148] simulationTime 259200
scalar OsgEarthNet.uav[149] utilizationSecMission 0
scalar OsgEarthNet.uav[149] utilizationSecMaintenance 0
scalar OsgEarthNet.uav[149] utilizationSecCharge 0
scalar OsgEarthNet.uav[149] utilizationSecIdle 259199.999
scalar OsgEarthNet.uav[149] utilizationEnergyMission 0
scalar OsgEarthNet.uav[149] utilizationEnergyMaintenance 0
scalar OsgEarthNet.uav[149] utilizationEnergyCharge 0
scalar OsgEarthNet.uav[149] utilizationEnergyOverdrawMission 0
scalar OsgEarthNet.uav[149] utilizationEnergyOverdrawMaintenance 0
scalar OsgEarthNet.uav[149] utilizationCountMissions 0
scalar OsgEarthNet.uav[149] utilizationCountManeuversMission 0
scalar OsgEarthNet.uav[149] utilizationCountManeuversMaintenance 0
scalar OsgEarthNet.uav[149] utilizationCountChargeState 0
scalar OsgEarthNet.uav[149] utilizationCountOverdrawnAfterMission 0
scalar OsgEarthNet.uav[149] utilizationCountIdleState 1
scalar OsgEarthNet.uav[149] utilizationFail 0
scalar OsgEarthNet.uav[149] simulationTime 259200
scalar OsgEarthNet.cs[0] usedPower 4018948.0261678
scalar OsgEarthNet.cs[0] chargedPower 4018948.0261678
scalar OsgEarthNet.cs[0] chargedMobileNodes 877
scalar OsgEarthNet.cs[0] reservations 890
scalar OsgEarthNet.cs[1] usedPower 4160699.1727926
scalar OsgEarthNet.cs[1] chargedPower 4160699.1727926
scalar OsgEarthNet.cs[1] chargedMobileNodes 1036
scalar OsgEarthNet.cs[1] reservations 1051
scalar OsgEarthNet.cs[2] usedPower 8673363.8977011
scalar OsgEarthNet.cs[2] chargedPower 8673363.8977011
scalar OsgEarthNet.cs[2] chargedMobileNodes 152
scalar OsgEarthNet.cs[2] reservations 1904

