version 2
run Szenario_Hotel_Gabelbach-132-20180712-02:27:38-16568
attr configname Szenario_Hotel_Gabelbach
attr datetime 20180712-02:27:38
attr experiment Szenario_Hotel_Gabelbach
attr inifile omnetpp.ini
attr iterationvars "$replM=2, $biWeight=0.35, $replSearchM=1, $numUAVs=65"
attr iterationvarsf replM=2,biWeight=0.35,replSearchM=1,numUAVs=65-
attr measurement "$replM=2, $biWeight=0.35, $replSearchM=1, $numUAVs=65"
attr network OsgEarthNet
attr processid 16568
attr repetition 0
attr replication #0
attr resultdir results
attr runnumber 132
attr seedset 132
itervar biWeight 0.35
itervar numUAVs 65
itervar replM 2
itervar replSearchM 1
param *.osgEarthScene.scene "\"Szenario_Hotel_Gabelbach.earth\""
param *.playgroundLatitude 50.6830269
param *.playgroundLongitude 10.8538055
param *.playgroundWidth 3500m
param *.playgroundHeight 3500m
param *.cs[0].posX 3537m
param *.cs[0].posY 965m
param *.cs[0].posZ 538m
param *.cs[1].posX 312m
param *.cs[1].posY 1262m
param *.cs[1].posZ 539m
param *.cs[2].posX 2185m
param *.cs[2].posY 3026m
param *.cs[2].posZ 777m
param *.cs[3].posX 10m
param *.cs[3].posY 2200m
param *.cs[3].posZ 560m
param *.cs[4].posX 750m
param *.cs[4].posY 200m
param *.cs[4].posZ 540m
param *.cs[5].posX 2450m
param *.cs[5].posY 180m
param *.cs[5].posZ 524m
param *.cs[6].posX 3140m
param *.cs[6].posY 1790m
param *.cs[6].posZ 606m
param *.numCSs 3
param *.uav[*].replacementMethod 2
param *.uav[*].weightedSumWeight 0.35
param *.missionControl.replacementSearchMethod 1
param *.numUAVs 65
param *.numCSs 3
param *.numUAVs 100
param *.*.timeStep 10s
param *.uav[*].commandPreviewCommandCount 20
param *.missionControl.missionFiles "\"missions\\\\Szenario_WB_Hotel_Gabelbach_Mission_Hotel.waypoints,missions\\\\Szenario_WB_Hotel_Gabelbach_Mission_Kickelhahn.waypoints,missions\\\\Szenario_WB_Hotel_Gabelbach_Mission_Ilmenau_Sportplatz.waypoints,missions\\\\Szenario_WB_Hotel_Gabelbach_Mission_Manebach_Mitte.waypoints,missions\\\\Szenario_WB_Hotel_Gabelbach_Mission_Manebach_Sued.waypoints,missions\\\\Szenario_WB_Hotel_Gabelbach_Hover_HoheSchlaufe.waypoints,missions\\\\Szenario_WB_Hotel_Gabelbach_Hover_Kickelhahn.waypoints,missions\\\\Szenario_WB_Hotel_Gabelbach_Hover_Gabelbachskopf.waypoints,missions\\\\Szenario_WB_Hotel_Gabelbach_Hover_Dachskopf.waypoints\""
param *.uav[0].startX 3537m
param *.uav[0].startY 965m
param *.uav[0].startZ 539m
param *.uav[1].startX 312m
param *.uav[1].startY 1262m
param *.uav[1].startZ 540m
param *.uav[2].startX 2185m
param *.uav[2].startY 3026m
param *.uav[2].startZ 778m
param *.uav[3].startX 3537m
param *.uav[3].startY 965m
param *.uav[3].startZ 539m
param *.uav[4].startX 312m
param *.uav[4].startY 1262m
param *.uav[4].startZ 540m
param *.uav[5].startX 2185m
param *.uav[5].startY 3026m
param *.uav[5].startZ 778m
param *.uav[6].startX 3537m
param *.uav[6].startY 965m
param *.uav[6].startZ 539m
param *.uav[7].startX 312m
param *.uav[7].startY 1262m
param *.uav[7].startZ 540m
param *.uav[8].startX 2185m
param *.uav[8].startY 3026m
param *.uav[8].startZ 778m
param *.uav[9].startX 3537m
param *.uav[9].startY 965m
param *.uav[9].startZ 539m
param *.uav[10].startX 3537m
param *.uav[10].startY 965m
param *.uav[10].startZ 539m
param *.uav[11].startX 312m
param *.uav[11].startY 1262m
param *.uav[11].startZ 540m
param *.uav[12].startX 2185m
param *.uav[12].startY 3026m
param *.uav[12].startZ 778m
param *.uav[13].startX 3537m
param *.uav[13].startY 965m
param *.uav[13].startZ 539m
param *.uav[14].startX 312m
param *.uav[14].startY 1262m
param *.uav[14].startZ 540m
param *.uav[15].startX 2185m
param *.uav[15].startY 3026m
param *.uav[15].startZ 778m
param *.uav[16].startX 3537m
param *.uav[16].startY 965m
param *.uav[16].startZ 539m
param *.uav[17].startX 312m
param *.uav[17].startY 1262m
param *.uav[17].startZ 540m
param *.uav[18].startX 2185m
param *.uav[18].startY 3026m
param *.uav[18].startZ 778m
param *.uav[19].startX 3537m
param *.uav[19].startY 965m
param *.uav[19].startZ 539m
param *.uav[20].startX 3537m
param *.uav[20].startY 965m
param *.uav[20].startZ 539m
param *.uav[21].startX 312m
param *.uav[21].startY 1262m
param *.uav[21].startZ 540m
param *.uav[22].startX 2185m
param *.uav[22].startY 3026m
param *.uav[22].startZ 778m
param *.uav[23].startX 3537m
param *.uav[23].startY 965m
param *.uav[23].startZ 539m
param *.uav[24].startX 312m
param *.uav[24].startY 1262m
param *.uav[24].startZ 540m
param *.uav[25].startX 2185m
param *.uav[25].startY 3026m
param *.uav[25].startZ 778m
param *.uav[26].startX 3537m
param *.uav[26].startY 965m
param *.uav[26].startZ 539m
param *.uav[27].startX 312m
param *.uav[27].startY 1262m
param *.uav[27].startZ 540m
param *.uav[28].startX 2185m
param *.uav[28].startY 3026m
param *.uav[28].startZ 778m
param *.uav[29].startX 3537m
param *.uav[29].startY 965m
param *.uav[29].startZ 539m
param *.uav[30].startX 3537m
param *.uav[30].startY 965m
param *.uav[30].startZ 539m
param *.uav[31].startX 312m
param *.uav[31].startY 1262m
param *.uav[31].startZ 540m
param *.uav[32].startX 2185m
param *.uav[32].startY 3026m
param *.uav[32].startZ 778m
param *.uav[33].startX 3537m
param *.uav[33].startY 965m
param *.uav[33].startZ 539m
param *.uav[34].startX 312m
param *.uav[34].startY 1262m
param *.uav[34].startZ 540m
param *.uav[35].startX 2185m
param *.uav[35].startY 3026m
param *.uav[35].startZ 778m
param *.uav[36].startX 3537m
param *.uav[36].startY 965m
param *.uav[36].startZ 539m
param *.uav[37].startX 312m
param *.uav[37].startY 1262m
param *.uav[37].startZ 540m
param *.uav[38].startX 2185m
param *.uav[38].startY 3026m
param *.uav[38].startZ 778m
param *.uav[39].startX 3537m
param *.uav[39].startY 965m
param *.uav[39].startZ 539m
param *.uav[40].startX 3537m
param *.uav[40].startY 965m
param *.uav[40].startZ 539m
param *.uav[41].startX 312m
param *.uav[41].startY 1262m
param *.uav[41].startZ 540m
param *.uav[42].startX 2185m
param *.uav[42].startY 3026m
param *.uav[42].startZ 778m
param *.uav[43].startX 3537m
param *.uav[43].startY 965m
param *.uav[43].startZ 539m
param *.uav[44].startX 312m
param *.uav[44].startY 1262m
param *.uav[44].startZ 540m
param *.uav[45].startX 2185m
param *.uav[45].startY 3026m
param *.uav[45].startZ 778m
param *.uav[46].startX 3537m
param *.uav[46].startY 965m
param *.uav[46].startZ 539m
param *.uav[47].startX 312m
param *.uav[47].startY 1262m
param *.uav[47].startZ 540m
param *.uav[48].startX 2185m
param *.uav[48].startY 3026m
param *.uav[48].startZ 778m
param *.uav[49].startX 3537m
param *.uav[49].startY 965m
param *.uav[49].startZ 539m
param *.uav[50].startX 3537m
param *.uav[50].startY 965m
param *.uav[50].startZ 539m
param *.uav[51].startX 312m
param *.uav[51].startY 1262m
param *.uav[51].startZ 540m
param *.uav[52].startX 2185m
param *.uav[52].startY 3026m
param *.uav[52].startZ 778m
param *.uav[53].startX 3537m
param *.uav[53].startY 965m
param *.uav[53].startZ 539m
param *.uav[54].startX 312m
param *.uav[54].startY 1262m
param *.uav[54].startZ 540m
param *.uav[55].startX 2185m
param *.uav[55].startY 3026m
param *.uav[55].startZ 778m
param *.uav[56].startX 3537m
param *.uav[56].startY 965m
param *.uav[56].startZ 539m
param *.uav[57].startX 312m
param *.uav[57].startY 1262m
param *.uav[57].startZ 540m
param *.uav[58].startX 2185m
param *.uav[58].startY 3026m
param *.uav[58].startZ 778m
param *.uav[59].startX 3537m
param *.uav[59].startY 965m
param *.uav[59].startZ 539m
param *.uav[60].startX 3537m
param *.uav[60].startY 965m
param *.uav[60].startZ 539m
param *.uav[61].startX 312m
param *.uav[61].startY 1262m
param *.uav[61].startZ 540m
param *.uav[62].startX 2185m
param *.uav[62].startY 3026m
param *.uav[62].startZ 778m
param *.uav[63].startX 3537m
param *.uav[63].startY 965m
param *.uav[63].startZ 539m
param *.uav[64].startX 312m
param *.uav[64].startY 1262m
param *.uav[64].startZ 540m
param *.uav[65].startX 2185m
param *.uav[65].startY 3026m
param *.uav[65].startZ 778m
param *.uav[66].startX 3537m
param *.uav[66].startY 965m
param *.uav[66].startZ 539m
param *.uav[67].startX 312m
param *.uav[67].startY 1262m
param *.uav[67].startZ 540m
param *.uav[68].startX 2185m
param *.uav[68].startY 3026m
param *.uav[68].startZ 778m
param *.uav[69].startX 3537m
param *.uav[69].startY 965m
param *.uav[69].startZ 539m
param *.uav[70].startX 3537m
param *.uav[70].startY 965m
param *.uav[70].startZ 539m
param *.uav[71].startX 312m
param *.uav[71].startY 1262m
param *.uav[71].startZ 540m
param *.uav[72].startX 2185m
param *.uav[72].startY 3026m
param *.uav[72].startZ 778m
param *.uav[73].startX 3537m
param *.uav[73].startY 965m
param *.uav[73].startZ 539m
param *.uav[74].startX 312m
param *.uav[74].startY 1262m
param *.uav[74].startZ 540m
param *.uav[75].startX 2185m
param *.uav[75].startY 3026m
param *.uav[75].startZ 778m
param *.uav[76].startX 3537m
param *.uav[76].startY 965m
param *.uav[76].startZ 539m
param *.uav[77].startX 312m
param *.uav[77].startY 1262m
param *.uav[77].startZ 540m
param *.uav[78].startX 2185m
param *.uav[78].startY 3026m
param *.uav[78].startZ 778m
param *.uav[79].startX 3537m
param *.uav[79].startY 965m
param *.uav[79].startZ 539m
param *.uav[80].startX 3537m
param *.uav[80].startY 965m
param *.uav[80].startZ 539m
param *.uav[81].startX 312m
param *.uav[81].startY 1262m
param *.uav[81].startZ 540m
param *.uav[82].startX 2185m
param *.uav[82].startY 3026m
param *.uav[82].startZ 778m
param *.uav[83].startX 3537m
param *.uav[83].startY 965m
param *.uav[83].startZ 539m
param *.uav[84].startX 312m
param *.uav[84].startY 1262m
param *.uav[84].startZ 540m
param *.uav[85].startX 2185m
param *.uav[85].startY 3026m
param *.uav[85].startZ 778m
param *.uav[86].startX 3537m
param *.uav[86].startY 965m
param *.uav[86].startZ 539m
param *.uav[87].startX 312m
param *.uav[87].startY 1262m
param *.uav[87].startZ 540m
param *.uav[88].startX 2185m
param *.uav[88].startY 3026m
param *.uav[88].startZ 778m
param *.uav[89].startX 3537m
param *.uav[89].startY 965m
param *.uav[89].startZ 539m
param *.uav[90].startX 3537m
param *.uav[90].startY 965m
param *.uav[90].startZ 539m
param *.uav[91].startX 312m
param *.uav[91].startY 1262m
param *.uav[91].startZ 540m
param *.uav[92].startX 2185m
param *.uav[92].startY 3026m
param *.uav[92].startZ 778m
param *.uav[93].startX 3537m
param *.uav[93].startY 965m
param *.uav[93].startZ 539m
param *.uav[94].startX 312m
param *.uav[94].startY 1262m
param *.uav[94].startZ 540m
param *.uav[95].startX 2185m
param *.uav[95].startY 3026m
param *.uav[95].startZ 778m
param *.uav[96].startX 3537m
param *.uav[96].startY 965m
param *.uav[96].startZ 539m
param *.uav[97].startX 312m
param *.uav[97].startY 1262m
param *.uav[97].startZ 540m
param *.uav[98].startX 2185m
param *.uav[98].startY 3026m
param *.uav[98].startZ 778m
param *.uav[99].startX 3537m
param *.uav[99].startY 965m
param *.uav[99].startZ 539m
param *.osgEarthScene.scene "\"boston.earth\""
param *.playgroundLatitude 42.3558
param *.playgroundLongitude -71.0677
param *.playgroundWidth 400m
param *.playgroundHeight 200m
param *.channelController.connectionColor "\"#0000FF40\""
param *.channelController.showConnections false
param *.uav[*].modelURL "\"quadrocopter.small.obj.15.scale.0,0,90.rot\""
param *.uav[*].labelColor "\"#FF7C00CC\""
param *.uav[*].label2Color "\"#FF7C00EE\""
param *.uav[*].batteryCapacity 5200mAh
param *.uav[*].batteryRemaining uav[index].batteryCapacity
param *.uav[*].predictionQuantile 0.95
param *.uav[*].replacementMethod 2
param *.uav[*].weightedSumWeight 0.5
param *.cs[*].modelURL "\"chargingstation_v1.osgt.2.scale.0,0,0.rot.0,0,-15e-1.trans\""
param *.cs[*].spotsWaiting 999
param *.cs[*].spotsCharging 999
param *.cs[*].chargeEffectivenessPercentage 100
param *.cs[*].nonLinearPhaseStartPercentage 85
param *.cs[*].chargeCurrent 6.0A
param *.cs[*].prioritizeFastCharge true
param *.missionControl.replacementSearchMethod 0
param *.*.timeStep 9s

scalar OsgEarthNet.uav[0] utilizationSecMission 35213.128204186
scalar OsgEarthNet.uav[0] utilizationSecMaintenance 23578.306527267
scalar OsgEarthNet.uav[0] utilizationSecCharge 196485.17214242
scalar OsgEarthNet.uav[0] utilizationSecIdle 3923.3921261283
scalar OsgEarthNet.uav[0] utilizationEnergyMission 173142.85342026
scalar OsgEarthNet.uav[0] utilizationEnergyMaintenance 111469.87154388
scalar OsgEarthNet.uav[0] utilizationEnergyCharge 285329.46728516
scalar OsgEarthNet.uav[0] utilizationEnergyOverdrawMission 0
scalar OsgEarthNet.uav[0] utilizationEnergyOverdrawMaintenance 0
scalar OsgEarthNet.uav[0] utilizationCountMissions 64
scalar OsgEarthNet.uav[0] utilizationCountManeuversMission 1214
scalar OsgEarthNet.uav[0] utilizationCountManeuversMaintenance 128
scalar OsgEarthNet.uav[0] utilizationCountChargeState 64
scalar OsgEarthNet.uav[0] utilizationCountOverdrawnAfterMission 0
scalar OsgEarthNet.uav[0] utilizationCountIdleState 8
scalar OsgEarthNet.uav[0] utilizationFail 0
scalar OsgEarthNet.uav[0] simulationTime 259200
scalar OsgEarthNet.uav[1] utilizationSecMission 32916.440356076
scalar OsgEarthNet.uav[1] utilizationSecMaintenance 19162.400665086
scalar OsgEarthNet.uav[1] utilizationSecCharge 195369.15797884
scalar OsgEarthNet.uav[1] utilizationSecIdle 11752
scalar OsgEarthNet.uav[1] utilizationEnergyMission 158659.22569656
scalar OsgEarthNet.uav[1] utilizationEnergyMaintenance 90440.730232239
scalar OsgEarthNet.uav[1] utilizationEnergyCharge 248405.3190918
scalar OsgEarthNet.uav[1] utilizationEnergyOverdrawMission 0
scalar OsgEarthNet.uav[1] utilizationEnergyOverdrawMaintenance 0
scalar OsgEarthNet.uav[1] utilizationCountMissions 62
scalar OsgEarthNet.uav[1] utilizationCountManeuversMission 986
scalar OsgEarthNet.uav[1] utilizationCountManeuversMaintenance 124
scalar OsgEarthNet.uav[1] utilizationCountChargeState 62
scalar OsgEarthNet.uav[1] utilizationCountOverdrawnAfterMission 0
scalar OsgEarthNet.uav[1] utilizationCountIdleState 48
scalar OsgEarthNet.uav[1] utilizationFail 0
scalar OsgEarthNet.uav[1] simulationTime 259200
scalar OsgEarthNet.uav[2] utilizationSecMission 36940.352359697
scalar OsgEarthNet.uav[2] utilizationSecMaintenance 16151.261694497
scalar OsgEarthNet.uav[2] utilizationSecCharge 191439.20983539
scalar OsgEarthNet.uav[2] utilizationSecIdle 14669.175110411
scalar OsgEarthNet.uav[2] utilizationEnergyMission 182498.08636475
scalar OsgEarthNet.uav[2] utilizationEnergyMaintenance 74499.06067276
scalar OsgEarthNet.uav[2] utilizationEnergyCharge 251760.66821289
scalar OsgEarthNet.uav[2] utilizationEnergyOverdrawMission 0
scalar OsgEarthNet.uav[2] utilizationEnergyOverdrawMaintenance 0
scalar OsgEarthNet.uav[2] utilizationCountMissions 55
scalar OsgEarthNet.uav[2] utilizationCountManeuversMission 1193
scalar OsgEarthNet.uav[2] utilizationCountManeuversMaintenance 110
scalar OsgEarthNet.uav[2] utilizationCountChargeState 55
scalar OsgEarthNet.uav[2] utilizationCountOverdrawnAfterMission 0
scalar OsgEarthNet.uav[2] utilizationCountIdleState 45
scalar OsgEarthNet.uav[2] utilizationFail 0
scalar OsgEarthNet.uav[2] simulationTime 259200
scalar OsgEarthNet.uav[3] utilizationSecMission 31982.677823132
scalar OsgEarthNet.uav[3] utilizationSecMaintenance 20382.808413689
scalar OsgEarthNet.uav[3] utilizationSecCharge 195287.3080842
scalar OsgEarthNet.uav[3] utilizationSecIdle 11547.204678978
scalar OsgEarthNet.uav[3] utilizationEnergyMission 157659.3337059
scalar OsgEarthNet.uav[3] utilizationEnergyMaintenance 96849.354427338
scalar OsgEarthNet.uav[3] utilizationEnergyCharge 252291.93017578
scalar OsgEarthNet.uav[3] utilizationEnergyOverdrawMission 0
scalar OsgEarthNet.uav[3] utilizationEnergyOverdrawMaintenance 0
scalar OsgEarthNet.uav[3] utilizationCountMissions 61
scalar OsgEarthNet.uav[3] utilizationCountManeuversMission 1107
scalar OsgEarthNet.uav[3] utilizationCountManeuversMaintenance 122
scalar OsgEarthNet.uav[3] utilizationCountChargeState 61
scalar OsgEarthNet.uav[3] utilizationCountOverdrawnAfterMission 0
scalar OsgEarthNet.uav[3] utilizationCountIdleState 40
scalar OsgEarthNet.uav[3] utilizationFail 0
scalar OsgEarthNet.uav[3] simulationTime 259200
scalar OsgEarthNet.uav[4] utilizationSecMission 33260.468969723
scalar OsgEarthNet.uav[4] utilizationSecMaintenance 19176.803762263
scalar OsgEarthNet.uav[4] utilizationSecCharge 194280.72026801
scalar OsgEarthNet.uav[4] utilizationSecIdle 12482.006
scalar OsgEarthNet.uav[4] utilizationEnergyMission 158262.89705658
scalar OsgEarthNet.uav[4] utilizationEnergyMaintenance 90626.069190979
scalar OsgEarthNet.uav[4] utilizationEnergyCharge 249298.11083984
scalar OsgEarthNet.uav[4] utilizationEnergyOverdrawMission 0
scalar OsgEarthNet.uav[4] utilizationEnergyOverdrawMaintenance 0
scalar OsgEarthNet.uav[4] utilizationCountMissions 62
scalar OsgEarthNet.uav[4] utilizationCountManeuversMission 949
scalar OsgEarthNet.uav[4] utilizationCountManeuversMaintenance 124
scalar OsgEarthNet.uav[4] utilizationCountChargeState 62
scalar OsgEarthNet.uav[4] utilizationCountOverdrawnAfterMission 0
scalar OsgEarthNet.uav[4] utilizationCountIdleState 38
scalar OsgEarthNet.uav[4] utilizationFail 0
scalar OsgEarthNet.uav[4] simulationTime 259200
scalar OsgEarthNet.uav[5] utilizationSecMission 37400.510393664
scalar OsgEarthNet.uav[5] utilizationSecMaintenance 15241.631916564
scalar OsgEarthNet.uav[5] utilizationSecCharge 192108.43134248
scalar OsgEarthNet.uav[5] utilizationSecIdle 14449.42534729
scalar OsgEarthNet.uav[5] utilizationEnergyMission 181742.00457001
scalar OsgEarthNet.uav[5] utilizationEnergyMaintenance 70492.974887848
scalar OsgEarthNet.uav[5] utilizationEnergyCharge 251715.8269043
scalar OsgEarthNet.uav[5] utilizationEnergyOverdrawMission 0
scalar OsgEarthNet.uav[5] utilizationEnergyOverdrawMaintenance 0
scalar OsgEarthNet.uav[5] utilizationCountMissions 55
scalar OsgEarthNet.uav[5] utilizationCountManeuversMission 1282
scalar OsgEarthNet.uav[5] utilizationCountManeuversMaintenance 110
scalar OsgEarthNet.uav[5] utilizationCountChargeState 55
scalar OsgEarthNet.uav[5] utilizationCountOverdrawnAfterMission 0
scalar OsgEarthNet.uav[5] utilizationCountIdleState 43
scalar OsgEarthNet.uav[5] utilizationFail 0
scalar OsgEarthNet.uav[5] simulationTime 259200
scalar OsgEarthNet.uav[6] utilizationSecMission 36687.784335946
scalar OsgEarthNet.uav[6] utilizationSecMaintenance 16077.230735426
scalar OsgEarthNet.uav[6] utilizationSecCharge 190874.03567296
scalar OsgEarthNet.uav[6] utilizationSecIdle 15560.948255665
scalar OsgEarthNet.uav[6] utilizationEnergyMission 178226.5454483
scalar OsgEarthNet.uav[6] utilizationEnergyMaintenance 73604.281620026
scalar OsgEarthNet.uav[6] utilizationEnergyCharge 249478.49560547
scalar OsgEarthNet.uav[6] utilizationEnergyOverdrawMission 0
scalar OsgEarthNet.uav[6] utilizationEnergyOverdrawMaintenance 0
scalar OsgEarthNet.uav[6] utilizationCountMissions 55
scalar OsgEarthNet.uav[6] utilizationCountManeuversMission 1266
scalar OsgEarthNet.uav[6] utilizationCountManeuversMaintenance 110
scalar OsgEarthNet.uav[6] utilizationCountChargeState 55
scalar OsgEarthNet.uav[6] utilizationCountOverdrawnAfterMission 0
scalar OsgEarthNet.uav[6] utilizationCountIdleState 44
scalar OsgEarthNet.uav[6] utilizationFail 0
scalar OsgEarthNet.uav[6] simulationTime 259200
scalar OsgEarthNet.uav[7] utilizationSecMission 34055.556464604
scalar OsgEarthNet.uav[7] utilizationSecMaintenance 18712.442535396
scalar OsgEarthNet.uav[7] utilizationSecCharge 196850
scalar OsgEarthNet.uav[7] utilizationSecIdle 9582
scalar OsgEarthNet.uav[7] utilizationEnergyMission 164017.68763585
scalar OsgEarthNet.uav[7] utilizationEnergyMaintenance 88198.511604309
scalar OsgEarthNet.uav[7] utilizationEnergyCharge 250638.61108398
scalar OsgEarthNet.uav[7] utilizationEnergyOverdrawMission 0
scalar OsgEarthNet.uav[7] utilizationEnergyOverdrawMaintenance 0
scalar OsgEarthNet.uav[7] utilizationCountMissions 62
scalar OsgEarthNet.uav[7] utilizationCountManeuversMission 925
scalar OsgEarthNet.uav[7] utilizationCountManeuversMaintenance 124
scalar OsgEarthNet.uav[7] utilizationCountChargeState 62
scalar OsgEarthNet.uav[7] utilizationCountOverdrawnAfterMission 0
scalar OsgEarthNet.uav[7] utilizationCountIdleState 45
scalar OsgEarthNet.uav[7] utilizationFail 0
scalar OsgEarthNet.uav[7] simulationTime 259200
scalar OsgEarthNet.uav[8] utilizationSecMission 36494.121655609
scalar OsgEarthNet.uav[8] utilizationSecMaintenance 15809.171981987
scalar OsgEarthNet.uav[8] utilizationSecCharge 190830
scalar OsgEarthNet.uav[8] utilizationSecIdle 16066.705362404
scalar OsgEarthNet.uav[8] utilizationEnergyMission 175121.61281694
scalar OsgEarthNet.uav[8] utilizationEnergyMaintenance 72383.712696075
scalar OsgEarthNet.uav[8] utilizationEnergyCharge 249582.67089844
scalar OsgEarthNet.uav[8] utilizationEnergyOverdrawMission 0
scalar OsgEarthNet.uav[8] utilizationEnergyOverdrawMaintenance 0
scalar OsgEarthNet.uav[8] utilizationCountMissions 54
scalar OsgEarthNet.uav[8] utilizationCountManeuversMission 1120
scalar OsgEarthNet.uav[8] utilizationCountManeuversMaintenance 109
scalar OsgEarthNet.uav[8] utilizationCountChargeState 54
scalar OsgEarthNet.uav[8] utilizationCountOverdrawnAfterMission 0
scalar OsgEarthNet.uav[8] utilizationCountIdleState 42
scalar OsgEarthNet.uav[8] utilizationFail 0
scalar OsgEarthNet.uav[8] simulationTime 259200
scalar OsgEarthNet.uav[9] utilizationSecMission 33553.119595943
scalar OsgEarthNet.uav[9] utilizationSecMaintenance 19178.243540938
scalar OsgEarthNet.uav[9] utilizationSecCharge 196596.63586312
scalar OsgEarthNet.uav[9] utilizationSecIdle 9872
scalar OsgEarthNet.uav[9] utilizationEnergyMission 159245.79143143
scalar OsgEarthNet.uav[9] utilizationEnergyMaintenance 90973.812488556
scalar OsgEarthNet.uav[9] utilizationEnergyCharge 248610.95935059
scalar OsgEarthNet.uav[9] utilizationEnergyOverdrawMission 0
scalar OsgEarthNet.uav[9] utilizationEnergyOverdrawMaintenance 0
scalar OsgEarthNet.uav[9] utilizationCountMissions 63
scalar OsgEarthNet.uav[9] utilizationCountManeuversMission 912
scalar OsgEarthNet.uav[9] utilizationCountManeuversMaintenance 126
scalar OsgEarthNet.uav[9] utilizationCountChargeState 63
scalar OsgEarthNet.uav[9] utilizationCountOverdrawnAfterMission 0
scalar OsgEarthNet.uav[9] utilizationCountIdleState 43
scalar OsgEarthNet.uav[9] utilizationFail 0
scalar OsgEarthNet.uav[9] simulationTime 259200
scalar OsgEarthNet.uav[10] utilizationSecMission 36495.003661927
scalar OsgEarthNet.uav[10] utilizationSecMaintenance 23515.667466346
scalar OsgEarthNet.uav[10] utilizationSecCharge 195452.12519275
scalar OsgEarthNet.uav[10] utilizationSecIdle 3737.2026789781
scalar OsgEarthNet.uav[10] utilizationEnergyMission 176639.78392792
scalar OsgEarthNet.uav[10] utilizationEnergyMaintenance 112650.38021088
scalar OsgEarthNet.uav[10] utilizationEnergyCharge 286964.18988037
scalar OsgEarthNet.uav[10] utilizationEnergyOverdrawMission 0
scalar OsgEarthNet.uav[10] utilizationEnergyOverdrawMaintenance 0
scalar OsgEarthNet.uav[10] utilizationCountMissions 66
scalar OsgEarthNet.uav[10] utilizationCountManeuversMission 1200
scalar OsgEarthNet.uav[10] utilizationCountManeuversMaintenance 132
scalar OsgEarthNet.uav[10] utilizationCountChargeState 66
scalar OsgEarthNet.uav[10] utilizationCountOverdrawnAfterMission 0
scalar OsgEarthNet.uav[10] utilizationCountIdleState 6
scalar OsgEarthNet.uav[10] utilizationFail 0
scalar OsgEarthNet.uav[10] simulationTime 259200
scalar OsgEarthNet.uav[11] utilizationSecMission 34867.956117104
scalar OsgEarthNet.uav[11] utilizationSecMaintenance 18324.840769826
scalar OsgEarthNet.uav[11] utilizationSecCharge 193805.20011307
scalar OsgEarthNet.uav[11] utilizationSecIdle 12202.002
scalar OsgEarthNet.uav[11] utilizationEnergyMission 166562.02302551
scalar OsgEarthNet.uav[11] utilizationEnergyMaintenance 87236.44883728
scalar OsgEarthNet.uav[11] utilizationEnergyCharge 249868.90991211
scalar OsgEarthNet.uav[11] utilizationEnergyOverdrawMission 0
scalar OsgEarthNet.uav[11] utilizationEnergyOverdrawMaintenance 0
scalar OsgEarthNet.uav[11] utilizationCountMissions 60
scalar OsgEarthNet.uav[11] utilizationCountManeuversMission 966
scalar OsgEarthNet.uav[11] utilizationCountManeuversMaintenance 120
scalar OsgEarthNet.uav[11] utilizationCountChargeState 60
scalar OsgEarthNet.uav[11] utilizationCountOverdrawnAfterMission 0
scalar OsgEarthNet.uav[11] utilizationCountIdleState 43
scalar OsgEarthNet.uav[11] utilizationFail 0
scalar OsgEarthNet.uav[11] simulationTime 259200
scalar OsgEarthNet.uav[12] utilizationSecMission 35782.824034514
scalar OsgEarthNet.uav[12] utilizationSecMaintenance 16461.240855017
scalar OsgEarthNet.uav[12] utilizationSecCharge 191793.93011047
scalar OsgEarthNet.uav[12] utilizationSecIdle 15162.004
scalar OsgEarthNet.uav[12] utilizationEnergyMission 173906.847332
scalar OsgEarthNet.uav[12] utilizationEnergyMaintenance 76422.295108795
scalar OsgEarthNet.uav[12] utilizationEnergyCharge 251584.40283203
scalar OsgEarthNet.uav[12] utilizationEnergyOverdrawMission 0
scalar OsgEarthNet.uav[12] utilizationEnergyOverdrawMaintenance 0
scalar OsgEarthNet.uav[12] utilizationCountMissions 55
scalar OsgEarthNet.uav[12] utilizationCountManeuversMission 1230
scalar OsgEarthNet.uav[12] utilizationCountManeuversMaintenance 110
scalar OsgEarthNet.uav[12] utilizationCountChargeState 55
scalar OsgEarthNet.uav[12] utilizationCountOverdrawnAfterMission 0
scalar OsgEarthNet.uav[12] utilizationCountIdleState 44
scalar OsgEarthNet.uav[12] utilizationFail 0
scalar OsgEarthNet.uav[12] simulationTime 259200
scalar OsgEarthNet.uav[13] utilizationSecMission 35284.999122148
scalar OsgEarthNet.uav[13] utilizationSecMaintenance 18819.482697368
scalar OsgEarthNet.uav[13] utilizationSecCharge 197208.31950151
scalar OsgEarthNet.uav[13] utilizationSecIdle 7887.1976789781
scalar OsgEarthNet.uav[13] utilizationEnergyMission 170261.20198441
scalar OsgEarthNet.uav[13] utilizationEnergyMaintenance 89124.968399048
scalar OsgEarthNet.uav[13] utilizationEnergyCharge 258647.87011719
scalar OsgEarthNet.uav[13] utilizationEnergyOverdrawMission 0
scalar OsgEarthNet.uav[13] utilizationEnergyOverdrawMaintenance 0
scalar OsgEarthNet.uav[13] utilizationCountMissions 59
scalar OsgEarthNet.uav[13] utilizationCountManeuversMission 959
scalar OsgEarthNet.uav[13] utilizationCountManeuversMaintenance 118
scalar OsgEarthNet.uav[13] utilizationCountChargeState 59
scalar OsgEarthNet.uav[13] utilizationCountOverdrawnAfterMission 0
scalar OsgEarthNet.uav[13] utilizationCountIdleState 34
scalar OsgEarthNet.uav[13] utilizationFail 0
scalar OsgEarthNet.uav[13] simulationTime 259200
scalar OsgEarthNet.uav[14] utilizationSecMission 34742.614394486
scalar OsgEarthNet.uav[14] utilizationSecMaintenance 18312.847163242
scalar OsgEarthNet.uav[14] utilizationSecCharge 193600
scalar OsgEarthNet.uav[14] utilizationSecIdle 12544.537442272
scalar OsgEarthNet.uav[14] utilizationEnergyMission 166902.50569194
scalar OsgEarthNet.uav[14] utilizationEnergyMaintenance 86655.187789917
scalar OsgEarthNet.uav[14] utilizationEnergyCharge 250511.49633789
scalar OsgEarthNet.uav[14] utilizationEnergyOverdrawMission 0
scalar OsgEarthNet.uav[14] utilizationEnergyOverdrawMaintenance 0
scalar OsgEarthNet.uav[14] utilizationCountMissions 59
scalar OsgEarthNet.uav[14] utilizationCountManeuversMission 978
scalar OsgEarthNet.uav[14] utilizationCountManeuversMaintenance 119
scalar OsgEarthNet.uav[14] utilizationCountChargeState 59
scalar OsgEarthNet.uav[14] utilizationCountOverdrawnAfterMission 0
scalar OsgEarthNet.uav[14] utilizationCountIdleState 42
scalar OsgEarthNet.uav[14] utilizationFail 0
scalar OsgEarthNet.uav[14] simulationTime 259200
scalar OsgEarthNet.uav[15] utilizationSecMission 37280.565205012
scalar OsgEarthNet.uav[15] utilizationSecMaintenance 15578.447436901
scalar OsgEarthNet.uav[15] utilizationSecCharge 192458.98635809
scalar OsgEarthNet.uav[15] utilizationSecIdle 13882
scalar OsgEarthNet.uav[15] utilizationEnergyMission 180758.83123016
scalar OsgEarthNet.uav[15] utilizationEnergyMaintenance 72825.180957794
scalar OsgEarthNet.uav[15] utilizationEnergyCharge 253289.99023438
scalar OsgEarthNet.uav[15] utilizationEnergyOverdrawMission 0
scalar OsgEarthNet.uav[15] utilizationEnergyOverdrawMaintenance 0
scalar OsgEarthNet.uav[15] utilizationCountMissions 55
scalar OsgEarthNet.uav[15] utilizationCountManeuversMission 1214
scalar OsgEarthNet.uav[15] utilizationCountManeuversMaintenance 110
scalar OsgEarthNet.uav[15] utilizationCountChargeState 55
scalar OsgEarthNet.uav[15] utilizationCountOverdrawnAfterMission 0
scalar OsgEarthNet.uav[15] utilizationCountIdleState 44
scalar OsgEarthNet.uav[15] utilizationFail 0
scalar OsgEarthNet.uav[15] simulationTime 259200
scalar OsgEarthNet.uav[16] utilizationSecMission 37443.390886555
scalar OsgEarthNet.uav[16] utilizationSecMaintenance 15763.020233611
scalar OsgEarthNet.uav[16] utilizationSecCharge 192951.58787983
scalar OsgEarthNet.uav[16] utilizationSecIdle 13042
scalar OsgEarthNet.uav[16] utilizationEnergyMission 177376.90782547
scalar OsgEarthNet.uav[16] utilizationEnergyMaintenance 73318.76102066
scalar OsgEarthNet.uav[16] utilizationEnergyCharge 252842.45947266
scalar OsgEarthNet.uav[16] utilizationEnergyOverdrawMission 0
scalar OsgEarthNet.uav[16] utilizationEnergyOverdrawMaintenance 0
scalar OsgEarthNet.uav[16] utilizationCountMissions 55
scalar OsgEarthNet.uav[16] utilizationCountManeuversMission 1055
scalar OsgEarthNet.uav[16] utilizationCountManeuversMaintenance 109
scalar OsgEarthNet.uav[16] utilizationCountChargeState 55
scalar OsgEarthNet.uav[16] utilizationCountOverdrawnAfterMission 0
scalar OsgEarthNet.uav[16] utilizationCountIdleState 42
scalar OsgEarthNet.uav[16] utilizationFail 0
scalar OsgEarthNet.uav[16] simulationTime 259200
scalar OsgEarthNet.uav[17] utilizationSecMission 34004.822457247
scalar OsgEarthNet.uav[17] utilizationSecMaintenance 19012.871357183
scalar OsgEarthNet.uav[17] utilizationSecCharge 195418.63700758
scalar OsgEarthNet.uav[17] utilizationSecIdle 10763.668177988
scalar OsgEarthNet.uav[17] utilizationEnergyMission 162717.0239296
scalar OsgEarthNet.uav[17] utilizationEnergyMaintenance 90025.195159912
scalar OsgEarthNet.uav[17] utilizationEnergyCharge 248556.62158203
scalar OsgEarthNet.uav[17] utilizationEnergyOverdrawMission 0
scalar OsgEarthNet.uav[17] utilizationEnergyOverdrawMaintenance 0
scalar OsgEarthNet.uav[17] utilizationCountMissions 63
scalar OsgEarthNet.uav[17] utilizationCountManeuversMission 913
scalar OsgEarthNet.uav[17] utilizationCountManeuversMaintenance 126
scalar OsgEarthNet.uav[17] utilizationCountChargeState 63
scalar OsgEarthNet.uav[17] utilizationCountOverdrawnAfterMission 0
scalar OsgEarthNet.uav[17] utilizationCountIdleState 44
scalar OsgEarthNet.uav[17] utilizationFail 0
scalar OsgEarthNet.uav[17] simulationTime 259200
scalar OsgEarthNet.uav[18] utilizationSecMission 37824.762806203
scalar OsgEarthNet.uav[18] utilizationSecMaintenance 14926.418467083
scalar OsgEarthNet.uav[18] utilizationSecCharge 189599.5981128
scalar OsgEarthNet.uav[18] utilizationSecIdle 16849.219613916
scalar OsgEarthNet.uav[18] utilizationEnergyMission 182042.17669296
scalar OsgEarthNet.uav[18] utilizationEnergyMaintenance 69458.718742371
scalar OsgEarthNet.uav[18] utilizationEnergyCharge 248800.99829102
scalar OsgEarthNet.uav[18] utilizationEnergyOverdrawMission 0
scalar OsgEarthNet.uav[18] utilizationEnergyOverdrawMaintenance 0
scalar OsgEarthNet.uav[18] utilizationCountMissions 54
scalar OsgEarthNet.uav[18] utilizationCountManeuversMission 1132
scalar OsgEarthNet.uav[18] utilizationCountManeuversMaintenance 108
scalar OsgEarthNet.uav[18] utilizationCountChargeState 54
scalar OsgEarthNet.uav[18] utilizationCountOverdrawnAfterMission 0
scalar OsgEarthNet.uav[18] utilizationCountIdleState 47
scalar OsgEarthNet.uav[18] utilizationFail 0
scalar OsgEarthNet.uav[18] simulationTime 259200
scalar OsgEarthNet.uav[19] utilizationSecMission 37699.698600252
scalar OsgEarthNet.uav[19] utilizationSecMaintenance 15961.059789087
scalar OsgEarthNet.uav[19] utilizationSecCharge 190118.291355
scalar OsgEarthNet.uav[19] utilizationSecIdle 15420.949255665
scalar OsgEarthNet.uav[19] utilizationEnergyMission 179524.90479279
scalar OsgEarthNet.uav[19] utilizationEnergyMaintenance 74566.333209991
scalar OsgEarthNet.uav[19] utilizationEnergyCharge 248212.09265137
scalar OsgEarthNet.uav[19] utilizationEnergyOverdrawMission 0
scalar OsgEarthNet.uav[19] utilizationEnergyOverdrawMaintenance 0
scalar OsgEarthNet.uav[19] utilizationCountMissions 55
scalar OsgEarthNet.uav[19] utilizationCountManeuversMission 1128
scalar OsgEarthNet.uav[19] utilizationCountManeuversMaintenance 110
scalar OsgEarthNet.uav[19] utilizationCountChargeState 55
scalar OsgEarthNet.uav[19] utilizationCountOverdrawnAfterMission 0
scalar OsgEarthNet.uav[19] utilizationCountIdleState 44
scalar OsgEarthNet.uav[19] utilizationFail 0
scalar OsgEarthNet.uav[19] simulationTime 259200
scalar OsgEarthNet.uav[20] utilizationSecMission 32909.534815621
scalar OsgEarthNet.uav[20] utilizationSecMaintenance 18865.573643016
scalar OsgEarthNet.uav[20] utilizationSecCharge 194122.26438057
scalar OsgEarthNet.uav[20] utilizationSecIdle 13302.626160789
scalar OsgEarthNet.uav[20] utilizationEnergyMission 156918.74659729
scalar OsgEarthNet.uav[20] utilizationEnergyMaintenance 89048.919715881
scalar OsgEarthNet.uav[20] utilizationEnergyCharge 246294.31103516
scalar OsgEarthNet.uav[20] utilizationEnergyOverdrawMission 0
scalar OsgEarthNet.uav[20] utilizationEnergyOverdrawMaintenance 0
scalar OsgEarthNet.uav[20] utilizationCountMissions 62
scalar OsgEarthNet.uav[20] utilizationCountManeuversMission 920
scalar OsgEarthNet.uav[20] utilizationCountManeuversMaintenance 124
scalar OsgEarthNet.uav[20] utilizationCountChargeState 62
scalar OsgEarthNet.uav[20] utilizationCountOverdrawnAfterMission 0
scalar OsgEarthNet.uav[20] utilizationCountIdleState 48
scalar OsgEarthNet.uav[20] utilizationFail 0
scalar OsgEarthNet.uav[20] simulationTime 259200
scalar OsgEarthNet.uav[21] utilizationSecMission 33212.7904542
scalar OsgEarthNet.uav[21] utilizationSecMaintenance 19036.244560126
scalar OsgEarthNet.uav[21] utilizationSecCharge 195350
scalar OsgEarthNet.uav[21] utilizationSecIdle 11600.963985674
scalar OsgEarthNet.uav[21] utilizationEnergyMission 160494.93650436
scalar OsgEarthNet.uav[21] utilizationEnergyMaintenance 90031.138050895
scalar OsgEarthNet.uav[21] utilizationEnergyCharge 248672.34375
scalar OsgEarthNet.uav[21] utilizationEnergyOverdrawMission 0
scalar OsgEarthNet.uav[21] utilizationEnergyOverdrawMaintenance 0
scalar OsgEarthNet.uav[21] utilizationCountMissions 62
scalar OsgEarthNet.uav[21] utilizationCountManeuversMission 971
scalar OsgEarthNet.uav[21] utilizationCountManeuversMaintenance 125
scalar OsgEarthNet.uav[21] utilizationCountChargeState 62
scalar OsgEarthNet.uav[21] utilizationCountOverdrawnAfterMission 0
scalar OsgEarthNet.uav[21] utilizationCountIdleState 45
scalar OsgEarthNet.uav[21] utilizationFail 0
scalar OsgEarthNet.uav[21] simulationTime 259200
scalar OsgEarthNet.uav[22] utilizationSecMission 37610.235850985
scalar OsgEarthNet.uav[22] utilizationSecMaintenance 15550.899237857
scalar OsgEarthNet.uav[22] utilizationSecCharge 191596.86391116
scalar OsgEarthNet.uav[22] utilizationSecIdle 14442
scalar OsgEarthNet.uav[22] utilizationEnergyMission 179993.32765469
scalar OsgEarthNet.uav[22] utilizationEnergyMaintenance 72174.645111084
scalar OsgEarthNet.uav[22] utilizationEnergyCharge 251296.375
scalar OsgEarthNet.uav[22] utilizationEnergyOverdrawMission 0
scalar OsgEarthNet.uav[22] utilizationEnergyOverdrawMaintenance 0
scalar OsgEarthNet.uav[22] utilizationCountMissions 55
scalar OsgEarthNet.uav[22] utilizationCountManeuversMission 1115
scalar OsgEarthNet.uav[22] utilizationCountManeuversMaintenance 109
scalar OsgEarthNet.uav[22] utilizationCountChargeState 55
scalar OsgEarthNet.uav[22] utilizationCountOverdrawnAfterMission 0
scalar OsgEarthNet.uav[22] utilizationCountIdleState 47
scalar OsgEarthNet.uav[22] utilizationFail 0
scalar OsgEarthNet.uav[22] simulationTime 259200
scalar OsgEarthNet.uav[23] utilizationSecMission 35795.423438726
scalar OsgEarthNet.uav[23] utilizationSecMaintenance 22232.079164502
scalar OsgEarthNet.uav[23] utilizationSecCharge 193047.85196625
scalar OsgEarthNet.uav[23] utilizationSecIdle 8124.6444305176
scalar OsgEarthNet.uav[23] utilizationEnergyMission 175094.62582397
scalar OsgEarthNet.uav[23] utilizationEnergyMaintenance 105518.30335617
scalar OsgEarthNet.uav[23] utilizationEnergyCharge 274709.59838867
scalar OsgEarthNet.uav[23] utilizationEnergyOverdrawMission 0
scalar OsgEarthNet.uav[23] utilizationEnergyOverdrawMaintenance 0
scalar OsgEarthNet.uav[23] utilizationCountMissions 64
scalar OsgEarthNet.uav[23] utilizationCountManeuversMission 1150
scalar OsgEarthNet.uav[23] utilizationCountManeuversMaintenance 128
scalar OsgEarthNet.uav[23] utilizationCountChargeState 64
scalar OsgEarthNet.uav[23] utilizationCountOverdrawnAfterMission 0
scalar OsgEarthNet.uav[23] utilizationCountIdleState 14
scalar OsgEarthNet.uav[23] utilizationFail 0
scalar OsgEarthNet.uav[23] simulationTime 259200
scalar OsgEarthNet.uav[24] utilizationSecMission 32139.853339005
scalar OsgEarthNet.uav[24] utilizationSecMaintenance 19501.792058116
scalar OsgEarthNet.uav[24] utilizationSecCharge 195920
scalar OsgEarthNet.uav[24] utilizationSecIdle 11638.353602879
scalar OsgEarthNet.uav[24] utilizationEnergyMission 154660.40328443
scalar OsgEarthNet.uav[24] utilizationEnergyMaintenance 91929.796611786
scalar OsgEarthNet.uav[24] utilizationEnergyCharge 246515.89550781
scalar OsgEarthNet.uav[24] utilizationEnergyOverdrawMission 0
scalar OsgEarthNet.uav[24] utilizationEnergyOverdrawMaintenance 0
scalar OsgEarthNet.uav[24] utilizationCountMissions 64
scalar OsgEarthNet.uav[24] utilizationCountManeuversMission 900
scalar OsgEarthNet.uav[24] utilizationCountManeuversMaintenance 129
scalar OsgEarthNet.uav[24] utilizationCountChargeState 64
scalar OsgEarthNet.uav[24] utilizationCountOverdrawnAfterMission 0
scalar OsgEarthNet.uav[24] utilizationCountIdleState 46
scalar OsgEarthNet.uav[24] utilizationFail 0
scalar OsgEarthNet.uav[24] simulationTime 259200
scalar OsgEarthNet.uav[25] utilizationSecMission 35377.947952523
scalar OsgEarthNet.uav[25] utilizationSecMaintenance 15822.099774046
scalar OsgEarthNet.uav[25] utilizationSecCharge 193087.94827343
scalar OsgEarthNet.uav[25] utilizationSecIdle 14912.003
scalar OsgEarthNet.uav[25] utilizationEnergyMission 174866.07804489
scalar OsgEarthNet.uav[25] utilizationEnergyMaintenance 72525.223377228
scalar OsgEarthNet.uav[25] utilizationEnergyCharge 251319.203125
scalar OsgEarthNet.uav[25] utilizationEnergyOverdrawMission 0
scalar OsgEarthNet.uav[25] utilizationEnergyOverdrawMaintenance 0
scalar OsgEarthNet.uav[25] utilizationCountMissions 55
scalar OsgEarthNet.uav[25] utilizationCountManeuversMission 1366
scalar OsgEarthNet.uav[25] utilizationCountManeuversMaintenance 110
scalar OsgEarthNet.uav[25] utilizationCountChargeState 55
scalar OsgEarthNet.uav[25] utilizationCountOverdrawnAfterMission 0
scalar OsgEarthNet.uav[25] utilizationCountIdleState 48
scalar OsgEarthNet.uav[25] utilizationFail 0
scalar OsgEarthNet.uav[25] simulationTime 259200
scalar OsgEarthNet.uav[26] utilizationSecMission 37342.924148168
scalar OsgEarthNet.uav[26] utilizationSecMaintenance 21846.216781244
scalar OsgEarthNet.uav[26] utilizationSecCharge 195813.54343526
scalar OsgEarthNet.uav[26] utilizationSecIdle 4197.3146353316
scalar OsgEarthNet.uav[26] utilizationEnergyMission 181852.49268341
scalar OsgEarthNet.uav[26] utilizationEnergyMaintenance 102872.2626152
scalar OsgEarthNet.uav[26] utilizationEnergyCharge 280881.36706543
scalar OsgEarthNet.uav[26] utilizationEnergyOverdrawMission 0
scalar OsgEarthNet.uav[26] utilizationEnergyOverdrawMaintenance 0
scalar OsgEarthNet.uav[26] utilizationCountMissions 64
scalar OsgEarthNet.uav[26] utilizationCountManeuversMission 1114
scalar OsgEarthNet.uav[26] utilizationCountManeuversMaintenance 128
scalar OsgEarthNet.uav[26] utilizationCountChargeState 64
scalar OsgEarthNet.uav[26] utilizationCountOverdrawnAfterMission 0
scalar OsgEarthNet.uav[26] utilizationCountIdleState 12
scalar OsgEarthNet.uav[26] utilizationFail 0
scalar OsgEarthNet.uav[26] simulationTime 259200
scalar OsgEarthNet.uav[27] utilizationSecMission 37577.794592274
scalar OsgEarthNet.uav[27] utilizationSecMaintenance 14831.665131498
scalar OsgEarthNet.uav[27] utilizationSecCharge 187944.3511473
scalar OsgEarthNet.uav[27] utilizationSecIdle 18846.188128931
scalar OsgEarthNet.uav[27] utilizationEnergyMission 183056.5917511
scalar OsgEarthNet.uav[27] utilizationEnergyMaintenance 67613.363349915
scalar OsgEarthNet.uav[27] utilizationEnergyCharge 245721.8067627
scalar OsgEarthNet.uav[27] utilizationEnergyOverdrawMission 0
scalar OsgEarthNet.uav[27] utilizationEnergyOverdrawMaintenance 0
scalar OsgEarthNet.uav[27] utilizationCountMissions 54
scalar OsgEarthNet.uav[27] utilizationCountManeuversMission 1205
scalar OsgEarthNet.uav[27] utilizationCountManeuversMaintenance 108
scalar OsgEarthNet.uav[27] utilizationCountChargeState 54
scalar OsgEarthNet.uav[27] utilizationCountOverdrawnAfterMission 0
scalar OsgEarthNet.uav[27] utilizationCountIdleState 45
scalar OsgEarthNet.uav[27] utilizationFail 0
scalar OsgEarthNet.uav[27] simulationTime 259200
scalar OsgEarthNet.uav[28] utilizationSecMission 36978.053866581
scalar OsgEarthNet.uav[28] utilizationSecMaintenance 15692.208507736
scalar OsgEarthNet.uav[28] utilizationSecCharge 192437.73562568
scalar OsgEarthNet.uav[28] utilizationSecIdle 14092.001
scalar OsgEarthNet.uav[28] utilizationEnergyMission 179481.54726028
scalar OsgEarthNet.uav[28] utilizationEnergyMaintenance 72020.619663239
scalar OsgEarthNet.uav[28] utilizationEnergyCharge 251611.93212891
scalar OsgEarthNet.uav[28] utilizationEnergyOverdrawMission 0
scalar OsgEarthNet.uav[28] utilizationEnergyOverdrawMaintenance 0
scalar OsgEarthNet.uav[28] utilizationCountMissions 55
scalar OsgEarthNet.uav[28] utilizationCountManeuversMission 1215
scalar OsgEarthNet.uav[28] utilizationCountManeuversMaintenance 110
scalar OsgEarthNet.uav[28] utilizationCountChargeState 55
scalar OsgEarthNet.uav[28] utilizationCountOverdrawnAfterMission 0
scalar OsgEarthNet.uav[28] utilizationCountIdleState 49
scalar OsgEarthNet.uav[28] utilizationFail 0
scalar OsgEarthNet.uav[28] simulationTime 259200
scalar OsgEarthNet.uav[29] utilizationSecMission 37643.957288369
scalar OsgEarthNet.uav[29] utilizationSecMaintenance 15015.632100327
scalar OsgEarthNet.uav[29] utilizationSecCharge 188578.26487136
scalar OsgEarthNet.uav[29] utilizationSecIdle 17962.144739949
scalar OsgEarthNet.uav[29] utilizationEnergyMission 180846.46242142
scalar OsgEarthNet.uav[29] utilizationEnergyMaintenance 69884.546497345
scalar OsgEarthNet.uav[29] utilizationEnergyCharge 246980.32006836
scalar OsgEarthNet.uav[29] utilizationEnergyOverdrawMission 0
scalar OsgEarthNet.uav[29] utilizationEnergyOverdrawMaintenance 0
scalar OsgEarthNet.uav[29] utilizationCountMissions 54
scalar OsgEarthNet.uav[29] utilizationCountManeuversMission 1109
scalar OsgEarthNet.uav[29] utilizationCountManeuversMaintenance 108
scalar OsgEarthNet.uav[29] utilizationCountChargeState 54
scalar OsgEarthNet.uav[29] utilizationCountOverdrawnAfterMission 0
scalar OsgEarthNet.uav[29] utilizationCountIdleState 44
scalar OsgEarthNet.uav[29] utilizationFail 0
scalar OsgEarthNet.uav[29] simulationTime 259200
scalar OsgEarthNet.uav[30] utilizationSecMission 33406.157832868
scalar OsgEarthNet.uav[30] utilizationSecMaintenance 18712.945354759
scalar OsgEarthNet.uav[30] utilizationSecCharge 193246.46073643
scalar OsgEarthNet.uav[30] utilizationSecIdle 13834.435075947
scalar OsgEarthNet.uav[30] utilizationEnergyMission 161645.72642136
scalar OsgEarthNet.uav[30] utilizationEnergyMaintenance 88182.071907043
scalar OsgEarthNet.uav[30] utilizationEnergyCharge 248500.23535156
scalar OsgEarthNet.uav[30] utilizationEnergyOverdrawMission 0
scalar OsgEarthNet.uav[30] utilizationEnergyOverdrawMaintenance 0
scalar OsgEarthNet.uav[30] utilizationCountMissions 60
scalar OsgEarthNet.uav[30] utilizationCountManeuversMission 935
scalar OsgEarthNet.uav[30] utilizationCountManeuversMaintenance 120
scalar OsgEarthNet.uav[30] utilizationCountChargeState 60
scalar OsgEarthNet.uav[30] utilizationCountOverdrawnAfterMission 0
scalar OsgEarthNet.uav[30] utilizationCountIdleState 40
scalar OsgEarthNet.uav[30] utilizationFail 0
scalar OsgEarthNet.uav[30] simulationTime 259200
scalar OsgEarthNet.uav[31] utilizationSecMission 32489.449994481
scalar OsgEarthNet.uav[31] utilizationSecMaintenance 19573.956813929
scalar OsgEarthNet.uav[31] utilizationSecCharge 197641.98030207
scalar OsgEarthNet.uav[31] utilizationSecIdle 9494.6118895164
scalar OsgEarthNet.uav[31] utilizationEnergyMission 156962.60620117
scalar OsgEarthNet.uav[31] utilizationEnergyMaintenance 93511.627239227
scalar OsgEarthNet.uav[31] utilizationEnergyCharge 249415.90966797
scalar OsgEarthNet.uav[31] utilizationEnergyOverdrawMission 0
scalar OsgEarthNet.uav[31] utilizationEnergyOverdrawMaintenance 0
scalar OsgEarthNet.uav[31] utilizationCountMissions 64
scalar OsgEarthNet.uav[31] utilizationCountManeuversMission 948
scalar OsgEarthNet.uav[31] utilizationCountManeuversMaintenance 128
scalar OsgEarthNet.uav[31] utilizationCountChargeState 64
scalar OsgEarthNet.uav[31] utilizationCountOverdrawnAfterMission 0
scalar OsgEarthNet.uav[31] utilizationCountIdleState 43
scalar OsgEarthNet.uav[31] utilizationFail 0
scalar OsgEarthNet.uav[31] simulationTime 259200
scalar OsgEarthNet.uav[32] utilizationSecMission 36697.358129717
scalar OsgEarthNet.uav[32] utilizationSecMaintenance 16330.640870283
scalar OsgEarthNet.uav[32] utilizationSecCharge 192050
scalar OsgEarthNet.uav[32] utilizationSecIdle 14122
scalar OsgEarthNet.uav[32] utilizationEnergyMission 178835.85010826
scalar OsgEarthNet.uav[32] utilizationEnergyMaintenance 75541.612674713
scalar OsgEarthNet.uav[32] utilizationEnergyCharge 251995.3984375
scalar OsgEarthNet.uav[32] utilizationEnergyOverdrawMission 0
scalar OsgEarthNet.uav[32] utilizationEnergyOverdrawMaintenance 0
scalar OsgEarthNet.uav[32] utilizationCountMissions 55
scalar OsgEarthNet.uav[32] utilizationCountManeuversMission 1301
scalar OsgEarthNet.uav[32] utilizationCountManeuversMaintenance 111
scalar OsgEarthNet.uav[32] utilizationCountChargeState 55
scalar OsgEarthNet.uav[32] utilizationCountOverdrawnAfterMission 0
scalar OsgEarthNet.uav[32] utilizationCountIdleState 45
scalar OsgEarthNet.uav[32] utilizationFail 0
scalar OsgEarthNet.uav[32] simulationTime 259200
scalar OsgEarthNet.uav[33] utilizationSecMission 33269.01497899
scalar OsgEarthNet.uav[33] utilizationSecMaintenance 18682.873168305
scalar OsgEarthNet.uav[33] utilizationSecCharge 196466.11085271
scalar OsgEarthNet.uav[33] utilizationSecIdle 10782
scalar OsgEarthNet.uav[33] utilizationEnergyMission 161587.92886734
scalar OsgEarthNet.uav[33] utilizationEnergyMaintenance 88405.592445373
scalar OsgEarthNet.uav[33] utilizationEnergyCharge 248947.38208008
scalar OsgEarthNet.uav[33] utilizationEnergyOverdrawMission 0
scalar OsgEarthNet.uav[33] utilizationEnergyOverdrawMaintenance 0
scalar OsgEarthNet.uav[33] utilizationCountMissions 62
scalar OsgEarthNet.uav[33] utilizationCountManeuversMission 931
scalar OsgEarthNet.uav[33] utilizationCountManeuversMaintenance 123
scalar OsgEarthNet.uav[33] utilizationCountChargeState 62
scalar OsgEarthNet.uav[33] utilizationCountOverdrawnAfterMission 0
scalar OsgEarthNet.uav[33] utilizationCountIdleState 46
scalar OsgEarthNet.uav[33] utilizationFail 0
scalar OsgEarthNet.uav[33] simulationTime 259200
scalar OsgEarthNet.uav[34] utilizationSecMission 32526.226597991
scalar OsgEarthNet.uav[34] utilizationSecMaintenance 18874.641787812
scalar OsgEarthNet.uav[34] utilizationSecCharge 194720
scalar OsgEarthNet.uav[34] utilizationSecIdle 13079.130614197
scalar OsgEarthNet.uav[34] utilizationEnergyMission 156143.4500885
scalar OsgEarthNet.uav[34] utilizationEnergyMaintenance 89748.420783997
scalar OsgEarthNet.uav[34] utilizationEnergyCharge 248181.28881836
scalar OsgEarthNet.uav[34] utilizationEnergyOverdrawMission 0
scalar OsgEarthNet.uav[34] utilizationEnergyOverdrawMaintenance 0
scalar OsgEarthNet.uav[34] utilizationCountMissions 61
scalar OsgEarthNet.uav[34] utilizationCountManeuversMission 943
scalar OsgEarthNet.uav[34] utilizationCountManeuversMaintenance 122
scalar OsgEarthNet.uav[34] utilizationCountChargeState 61
scalar OsgEarthNet.uav[34] utilizationCountOverdrawnAfterMission 0
scalar OsgEarthNet.uav[34] utilizationCountIdleState 41
scalar OsgEarthNet.uav[34] utilizationFail 0
scalar OsgEarthNet.uav[34] simulationTime 259200
scalar OsgEarthNet.uav[35] utilizationSecMission 37234.334297248
scalar OsgEarthNet.uav[35] utilizationSecMaintenance 16928.214438721
scalar OsgEarthNet.uav[35] utilizationSecCharge 191810
scalar OsgEarthNet.uav[35] utilizationSecIdle 13227.450264031
scalar OsgEarthNet.uav[35] utilizationEnergyMission 181596.29379272
scalar OsgEarthNet.uav[35] utilizationEnergyMaintenance 77832.950579095
scalar OsgEarthNet.uav[35] utilizationEnergyCharge 254937.20458984
scalar OsgEarthNet.uav[35] utilizationEnergyOverdrawMission 0
scalar OsgEarthNet.uav[35] utilizationEnergyOverdrawMaintenance 0
scalar OsgEarthNet.uav[35] utilizationCountMissions 57
scalar OsgEarthNet.uav[35] utilizationCountManeuversMission 1182
scalar OsgEarthNet.uav[35] utilizationCountManeuversMaintenance 114
scalar OsgEarthNet.uav[35] utilizationCountChargeState 56
scalar OsgEarthNet.uav[35] utilizationCountOverdrawnAfterMission 0
scalar OsgEarthNet.uav[35] utilizationCountIdleState 41
scalar OsgEarthNet.uav[35] utilizationFail 0
scalar OsgEarthNet.uav[35] simulationTime 259200
scalar OsgEarthNet.uav[36] utilizationSecMission 36464.745623176
scalar OsgEarthNet.uav[36] utilizationSecMaintenance 23450.79702713
scalar OsgEarthNet.uav[36] utilizationSecCharge 196707.25567072
scalar OsgEarthNet.uav[36] utilizationSecIdle 2577.2006789781
scalar OsgEarthNet.uav[36] utilizationEnergyMission 177164.907341
scalar OsgEarthNet.uav[36] utilizationEnergyMaintenance 111013.35993576
scalar OsgEarthNet.uav[36] utilizationEnergyCharge 285668.32006836
scalar OsgEarthNet.uav[36] utilizationEnergyOverdrawMission 0
scalar OsgEarthNet.uav[36] utilizationEnergyOverdrawMaintenance 0
scalar OsgEarthNet.uav[36] utilizationCountMissions 65
scalar OsgEarthNet.uav[36] utilizationCountManeuversMission 1203
scalar OsgEarthNet.uav[36] utilizationCountManeuversMaintenance 130
scalar OsgEarthNet.uav[36] utilizationCountChargeState 65
scalar OsgEarthNet.uav[36] utilizationCountOverdrawnAfterMission 0
scalar OsgEarthNet.uav[36] utilizationCountIdleState 8
scalar OsgEarthNet.uav[36] utilizationFail 0
scalar OsgEarthNet.uav[36] simulationTime 259200
scalar OsgEarthNet.uav[37] utilizationSecMission 32277.556026173
scalar OsgEarthNet.uav[37] utilizationSecMaintenance 19517.73727479
scalar OsgEarthNet.uav[37] utilizationSecCharge 193960
scalar OsgEarthNet.uav[37] utilizationSecIdle 13444.705699036
scalar OsgEarthNet.uav[37] utilizationEnergyMission 155118.64508057
scalar OsgEarthNet.uav[37] utilizationEnergyMaintenance 93322.502364835
scalar OsgEarthNet.uav[37] utilizationEnergyCharge 243872.55078125
scalar OsgEarthNet.uav[37] utilizationEnergyOverdrawMission 0
scalar OsgEarthNet.uav[37] utilizationEnergyOverdrawMaintenance 0
scalar OsgEarthNet.uav[37] utilizationCountMissions 64
scalar OsgEarthNet.uav[37] utilizationCountManeuversMission 960
scalar OsgEarthNet.uav[37] utilizationCountManeuversMaintenance 128
scalar OsgEarthNet.uav[37] utilizationCountChargeState 63
scalar OsgEarthNet.uav[37] utilizationCountOverdrawnAfterMission 0
scalar OsgEarthNet.uav[37] utilizationCountIdleState 45
scalar OsgEarthNet.uav[37] utilizationFail 0
scalar OsgEarthNet.uav[37] simulationTime 259200
scalar OsgEarthNet.uav[38] utilizationSecMission 37350.763215511
scalar OsgEarthNet.uav[38] utilizationSecMaintenance 14997.782825772
scalar OsgEarthNet.uav[38] utilizationSecCharge 191240
scalar OsgEarthNet.uav[38] utilizationSecIdle 15611.452958717
scalar OsgEarthNet.uav[38] utilizationEnergyMission 184071.25565338
scalar OsgEarthNet.uav[38] utilizationEnergyMaintenance 68840.604541699
scalar OsgEarthNet.uav[38] utilizationEnergyCharge 250054.65380859
scalar OsgEarthNet.uav[38] utilizationEnergyOverdrawMission 0
scalar OsgEarthNet.uav[38] utilizationEnergyOverdrawMaintenance 0
scalar OsgEarthNet.uav[38] utilizationCountMissions 54
scalar OsgEarthNet.uav[38] utilizationCountManeuversMission 1240
scalar OsgEarthNet.uav[38] utilizationCountManeuversMaintenance 109
scalar OsgEarthNet.uav[38] utilizationCountChargeState 54
scalar OsgEarthNet.uav[38] utilizationCountOverdrawnAfterMission 0
scalar OsgEarthNet.uav[38] utilizationCountIdleState 47
scalar OsgEarthNet.uav[38] utilizationFail 0
scalar OsgEarthNet.uav[38] simulationTime 259200
scalar OsgEarthNet.uav[39] utilizationSecMission 36255.003661927
scalar OsgEarthNet.uav[39] utilizationSecMaintenance 23417.705027372
scalar OsgEarthNet.uav[39] utilizationSecCharge 196560.08863172
scalar OsgEarthNet.uav[39] utilizationSecIdle 2967.2016789781
scalar OsgEarthNet.uav[39] utilizationEnergyMission 177990.63778305
scalar OsgEarthNet.uav[39] utilizationEnergyMaintenance 111915.17634201
scalar OsgEarthNet.uav[39] utilizationEnergyCharge 287870.34472656
scalar OsgEarthNet.uav[39] utilizationEnergyOverdrawMission 0
scalar OsgEarthNet.uav[39] utilizationEnergyOverdrawMaintenance 0
scalar OsgEarthNet.uav[39] utilizationCountMissions 65
scalar OsgEarthNet.uav[39] utilizationCountManeuversMission 1188
scalar OsgEarthNet.uav[39] utilizationCountManeuversMaintenance 130
scalar OsgEarthNet.uav[39] utilizationCountChargeState 65
scalar OsgEarthNet.uav[39] utilizationCountOverdrawnAfterMission 0
scalar OsgEarthNet.uav[39] utilizationCountIdleState 7
scalar OsgEarthNet.uav[39] utilizationFail 0
scalar OsgEarthNet.uav[39] simulationTime 259200
scalar OsgEarthNet.uav[40] utilizationSecMission 37547.871386078
scalar OsgEarthNet.uav[40] utilizationSecMaintenance 21698.109335599
scalar OsgEarthNet.uav[40] utilizationSecCharge 194960
scalar OsgEarthNet.uav[40] utilizationSecIdle 4994.0182783229
scalar OsgEarthNet.uav[40] utilizationEnergyMission 181566.92372894
scalar OsgEarthNet.uav[40] utilizationEnergyMaintenance 102407.07973299
scalar OsgEarthNet.uav[40] utilizationEnergyCharge 282702.41992188
scalar OsgEarthNet.uav[40] utilizationEnergyOverdrawMission 0
scalar OsgEarthNet.uav[40] utilizationEnergyOverdrawMaintenance 0
scalar OsgEarthNet.uav[40] utilizationCountMissions 64
scalar OsgEarthNet.uav[40] utilizationCountManeuversMission 1127
scalar OsgEarthNet.uav[40] utilizationCountManeuversMaintenance 129
scalar OsgEarthNet.uav[40] utilizationCountChargeState 64
scalar OsgEarthNet.uav[40] utilizationCountOverdrawnAfterMission 0
scalar OsgEarthNet.uav[40] utilizationCountIdleState 8
scalar OsgEarthNet.uav[40] utilizationFail 0
scalar OsgEarthNet.uav[40] simulationTime 259200
scalar OsgEarthNet.uav[41] utilizationSecMission 37555.926790051
scalar OsgEarthNet.uav[41] utilizationSecMaintenance 13704.295358164
scalar OsgEarthNet.uav[41] utilizationSecCharge 189330
scalar OsgEarthNet.uav[41] utilizationSecIdle 18609.776851784
scalar OsgEarthNet.uav[41] utilizationEnergyMission 179935.56269073
scalar OsgEarthNet.uav[41] utilizationEnergyMaintenance 64884.410503387
scalar OsgEarthNet.uav[41] utilizationEnergyCharge 247888.73046875
scalar OsgEarthNet.uav[41] utilizationEnergyOverdrawMission 0
scalar OsgEarthNet.uav[41] utilizationEnergyOverdrawMaintenance 0
scalar OsgEarthNet.uav[41] utilizationCountMissions 53
scalar OsgEarthNet.uav[41] utilizationCountManeuversMission 1137
scalar OsgEarthNet.uav[41] utilizationCountManeuversMaintenance 106
scalar OsgEarthNet.uav[41] utilizationCountChargeState 53
scalar OsgEarthNet.uav[41] utilizationCountOverdrawnAfterMission 0
scalar OsgEarthNet.uav[41] utilizationCountIdleState 51
scalar OsgEarthNet.uav[41] utilizationFail 0
scalar OsgEarthNet.uav[41] simulationTime 259200
scalar OsgEarthNet.uav[42] utilizationSecMission 37248.756338955
scalar OsgEarthNet.uav[42] utilizationSecMaintenance 15661.768545426
scalar OsgEarthNet.uav[42] utilizationSecCharge 192919.84303495
scalar OsgEarthNet.uav[42] utilizationSecIdle 13369.631080665
scalar OsgEarthNet.uav[42] utilizationEnergyMission 181554.43951797
scalar OsgEarthNet.uav[42] utilizationEnergyMaintenance 71826.938129425
scalar OsgEarthNet.uav[42] utilizationEnergyCharge 253394.11230469
scalar OsgEarthNet.uav[42] utilizationEnergyOverdrawMission 0
scalar OsgEarthNet.uav[42] utilizationEnergyOverdrawMaintenance 0
scalar OsgEarthNet.uav[42] utilizationCountMissions 55
scalar OsgEarthNet.uav[42] utilizationCountManeuversMission 1253
scalar OsgEarthNet.uav[42] utilizationCountManeuversMaintenance 110
scalar OsgEarthNet.uav[42] utilizationCountChargeState 55
scalar OsgEarthNet.uav[42] utilizationCountOverdrawnAfterMission 0
scalar OsgEarthNet.uav[42] utilizationCountIdleState 45
scalar OsgEarthNet.uav[42] utilizationFail 0
scalar OsgEarthNet.uav[42] simulationTime 259200
scalar OsgEarthNet.uav[43] utilizationSecMission 36404.011395517
scalar OsgEarthNet.uav[43] utilizationSecMaintenance 24165.801143953
scalar OsgEarthNet.uav[43] utilizationSecCharge 197112.98778155
scalar OsgEarthNet.uav[43] utilizationSecIdle 1517.1986789781
scalar OsgEarthNet.uav[43] utilizationEnergyMission 178253.65286255
scalar OsgEarthNet.uav[43] utilizationEnergyMaintenance 114708.05745697
scalar OsgEarthNet.uav[43] utilizationEnergyCharge 289074.7041626
scalar OsgEarthNet.uav[43] utilizationEnergyOverdrawMission 0
scalar OsgEarthNet.uav[43] utilizationEnergyOverdrawMaintenance 0
scalar OsgEarthNet.uav[43] utilizationCountMissions 66
scalar OsgEarthNet.uav[43] utilizationCountManeuversMission 1243
scalar OsgEarthNet.uav[43] utilizationCountManeuversMaintenance 132
scalar OsgEarthNet.uav[43] utilizationCountChargeState 66
scalar OsgEarthNet.uav[43] utilizationCountOverdrawnAfterMission 0
scalar OsgEarthNet.uav[43] utilizationCountIdleState 7
scalar OsgEarthNet.uav[43] utilizationFail 0
scalar OsgEarthNet.uav[43] simulationTime 259200
scalar OsgEarthNet.uav[44] utilizationSecMission 36633.192189785
scalar OsgEarthNet.uav[44] utilizationSecMaintenance 14651.363721524
scalar OsgEarthNet.uav[44] utilizationSecCharge 188010
scalar OsgEarthNet.uav[44] utilizationSecIdle 19905.443088691
scalar OsgEarthNet.uav[44] utilizationEnergyMission 179807.22020691
scalar OsgEarthNet.uav[44] utilizationEnergyMaintenance 68132.318523407
scalar OsgEarthNet.uav[44] utilizationEnergyCharge 245400.70361328
scalar OsgEarthNet.uav[44] utilizationEnergyOverdrawMission 0
scalar OsgEarthNet.uav[44] utilizationEnergyOverdrawMaintenance 0
scalar OsgEarthNet.uav[44] utilizationCountMissions 53
scalar OsgEarthNet.uav[44] utilizationCountManeuversMission 1227
scalar OsgEarthNet.uav[44] utilizationCountManeuversMaintenance 107
scalar OsgEarthNet.uav[44] utilizationCountChargeState 53
scalar OsgEarthNet.uav[44] utilizationCountOverdrawnAfterMission 0
scalar OsgEarthNet.uav[44] utilizationCountIdleState 50
scalar OsgEarthNet.uav[44] utilizationFail 0
scalar OsgEarthNet.uav[44] simulationTime 259200
scalar OsgEarthNet.uav[45] utilizationSecMission 36010.017194913
scalar OsgEarthNet.uav[45] utilizationSecMaintenance 16957.840672816
scalar OsgEarthNet.uav[45] utilizationSecCharge 192730.13913227
scalar OsgEarthNet.uav[45] utilizationSecIdle 13502.002
scalar OsgEarthNet.uav[45] utilizationEnergyMission 175201.29798889
scalar OsgEarthNet.uav[45] utilizationEnergyMaintenance 78840.895782471
scalar OsgEarthNet.uav[45] utilizationEnergyCharge 252272.69204712
scalar OsgEarthNet.uav[45] utilizationEnergyOverdrawMission 0
scalar OsgEarthNet.uav[45] utilizationEnergyOverdrawMaintenance 0
scalar OsgEarthNet.uav[45] utilizationCountMissions 56
scalar OsgEarthNet.uav[45] utilizationCountManeuversMission 1255
scalar OsgEarthNet.uav[45] utilizationCountManeuversMaintenance 112
scalar OsgEarthNet.uav[45] utilizationCountChargeState 56
scalar OsgEarthNet.uav[45] utilizationCountOverdrawnAfterMission 0
scalar OsgEarthNet.uav[45] utilizationCountIdleState 45
scalar OsgEarthNet.uav[45] utilizationFail 0
scalar OsgEarthNet.uav[45] simulationTime 259200
scalar OsgEarthNet.uav[46] utilizationSecMission 34871.877899025
scalar OsgEarthNet.uav[46] utilizationSecMaintenance 24514.197967001
scalar OsgEarthNet.uav[46] utilizationSecCharge 195056.716455
scalar OsgEarthNet.uav[46] utilizationSecIdle 4757.2066789781
scalar OsgEarthNet.uav[46] utilizationEnergyMission 170997.31729889
scalar OsgEarthNet.uav[46] utilizationEnergyMaintenance 116212.29105759
scalar OsgEarthNet.uav[46] utilizationEnergyCharge 287022.72705078
scalar OsgEarthNet.uav[46] utilizationEnergyOverdrawMission 0
scalar OsgEarthNet.uav[46] utilizationEnergyOverdrawMaintenance 0
scalar OsgEarthNet.uav[46] utilizationCountMissions 65
scalar OsgEarthNet.uav[46] utilizationCountManeuversMission 1249
scalar OsgEarthNet.uav[46] utilizationCountManeuversMaintenance 130
scalar OsgEarthNet.uav[46] utilizationCountChargeState 65
scalar OsgEarthNet.uav[46] utilizationCountOverdrawnAfterMission 0
scalar OsgEarthNet.uav[46] utilizationCountIdleState 4
scalar OsgEarthNet.uav[46] utilizationFail 0
scalar OsgEarthNet.uav[46] simulationTime 259200
scalar OsgEarthNet.uav[47] utilizationSecMission 32917.59141862
scalar OsgEarthNet.uav[47] utilizationSecMaintenance 18926.845723943
scalar OsgEarthNet.uav[47] utilizationSecCharge 195833.56035072
scalar OsgEarthNet.uav[47] utilizationSecIdle 11522.001506722
scalar OsgEarthNet.uav[47] utilizationEnergyMission 157552.96985626
scalar OsgEarthNet.uav[47] utilizationEnergyMaintenance 89883.882061005
scalar OsgEarthNet.uav[47] utilizationEnergyCharge 247371.47973633
scalar OsgEarthNet.uav[47] utilizationEnergyOverdrawMission 0
scalar OsgEarthNet.uav[47] utilizationEnergyOverdrawMaintenance 0
scalar OsgEarthNet.uav[47] utilizationCountMissions 64
scalar OsgEarthNet.uav[47] utilizationCountManeuversMission 851
scalar OsgEarthNet.uav[47] utilizationCountManeuversMaintenance 128
scalar OsgEarthNet.uav[47] utilizationCountChargeState 64
scalar OsgEarthNet.uav[47] utilizationCountOverdrawnAfterMission 0
scalar OsgEarthNet.uav[47] utilizationCountIdleState 41
scalar OsgEarthNet.uav[47] utilizationFail 0
scalar OsgEarthNet.uav[47] simulationTime 259200
scalar OsgEarthNet.uav[48] utilizationSecMission 36837.023575912
scalar OsgEarthNet.uav[48] utilizationSecMaintenance 15572.798722884
scalar OsgEarthNet.uav[48] utilizationSecCharge 191508.1747012
scalar OsgEarthNet.uav[48] utilizationSecIdle 15282.002
scalar OsgEarthNet.uav[48] utilizationEnergyMission 179682.43377304
scalar OsgEarthNet.uav[48] utilizationEnergyMaintenance 72229.089126587
scalar OsgEarthNet.uav[48] utilizationEnergyCharge 251668.1550293
scalar OsgEarthNet.uav[48] utilizationEnergyOverdrawMission 0
scalar OsgEarthNet.uav[48] utilizationEnergyOverdrawMaintenance 0
scalar OsgEarthNet.uav[48] utilizationCountMissions 55
scalar OsgEarthNet.uav[48] utilizationCountManeuversMission 1224
scalar OsgEarthNet.uav[48] utilizationCountManeuversMaintenance 110
scalar OsgEarthNet.uav[48] utilizationCountChargeState 55
scalar OsgEarthNet.uav[48] utilizationCountOverdrawnAfterMission 0
scalar OsgEarthNet.uav[48] utilizationCountIdleState 44
scalar OsgEarthNet.uav[48] utilizationFail 0
scalar OsgEarthNet.uav[48] simulationTime 259200
scalar OsgEarthNet.uav[49] utilizationSecMission 37073.895229805
scalar OsgEarthNet.uav[49] utilizationSecMaintenance 15026.138812985
scalar OsgEarthNet.uav[49] utilizationSecCharge 188969.01470155
scalar OsgEarthNet.uav[49] utilizationSecIdle 18130.950255665
scalar OsgEarthNet.uav[49] utilizationEnergyMission 178850.57811737
scalar OsgEarthNet.uav[49] utilizationEnergyMaintenance 69109.560997009
scalar OsgEarthNet.uav[49] utilizationEnergyCharge 247289.28356934
scalar OsgEarthNet.uav[49] utilizationEnergyOverdrawMission 0
scalar OsgEarthNet.uav[49] utilizationEnergyOverdrawMaintenance 0
scalar OsgEarthNet.uav[49] utilizationCountMissions 54
scalar OsgEarthNet.uav[49] utilizationCountManeuversMission 1205
scalar OsgEarthNet.uav[49] utilizationCountManeuversMaintenance 108
scalar OsgEarthNet.uav[49] utilizationCountChargeState 54
scalar OsgEarthNet.uav[49] utilizationCountOverdrawnAfterMission 0
scalar OsgEarthNet.uav[49] utilizationCountIdleState 47
scalar OsgEarthNet.uav[49] utilizationFail 0
scalar OsgEarthNet.uav[49] simulationTime 259200
scalar OsgEarthNet.uav[50] utilizationSecMission 35645.541847302
scalar OsgEarthNet.uav[50] utilizationSecMaintenance 15617.142558711
scalar OsgEarthNet.uav[50] utilizationSecCharge 188962.33804218
scalar OsgEarthNet.uav[50] utilizationSecIdle 18974.976551811
scalar OsgEarthNet.uav[50] utilizationEnergyMission 174453.57079697
scalar OsgEarthNet.uav[50] utilizationEnergyMaintenance 72855.781665802
scalar OsgEarthNet.uav[50] utilizationEnergyCharge 246997.18139648
scalar OsgEarthNet.uav[50] utilizationEnergyOverdrawMission 0
scalar OsgEarthNet.uav[50] utilizationEnergyOverdrawMaintenance 0
scalar OsgEarthNet.uav[50] utilizationCountMissions 54
scalar OsgEarthNet.uav[50] utilizationCountManeuversMission 1206
scalar OsgEarthNet.uav[50] utilizationCountManeuversMaintenance 108
scalar OsgEarthNet.uav[50] utilizationCountChargeState 54
scalar OsgEarthNet.uav[50] utilizationCountOverdrawnAfterMission 0
scalar OsgEarthNet.uav[50] utilizationCountIdleState 46
scalar OsgEarthNet.uav[50] utilizationFail 0
scalar OsgEarthNet.uav[50] simulationTime 259200
scalar OsgEarthNet.uav[51] utilizationSecMission 34822.761090356
scalar OsgEarthNet.uav[51] utilizationSecMaintenance 23853.322267392
scalar OsgEarthNet.uav[51] utilizationSecCharge 196028.47155356
scalar OsgEarthNet.uav[51] utilizationSecIdle 4495.444088691
scalar OsgEarthNet.uav[51] utilizationEnergyMission 173112.37348938
scalar OsgEarthNet.uav[51] utilizationEnergyMaintenance 112759.12854004
scalar OsgEarthNet.uav[51] utilizationEnergyCharge 284943.8347168
scalar OsgEarthNet.uav[51] utilizationEnergyOverdrawMission 0
scalar OsgEarthNet.uav[51] utilizationEnergyOverdrawMaintenance 0
scalar OsgEarthNet.uav[51] utilizationCountMissions 64
scalar OsgEarthNet.uav[51] utilizationCountManeuversMission 1216
scalar OsgEarthNet.uav[51] utilizationCountManeuversMaintenance 128
scalar OsgEarthNet.uav[51] utilizationCountChargeState 64
scalar OsgEarthNet.uav[51] utilizationCountOverdrawnAfterMission 0
scalar OsgEarthNet.uav[51] utilizationCountIdleState 9
scalar OsgEarthNet.uav[51] utilizationFail 0
scalar OsgEarthNet.uav[51] simulationTime 259200
scalar OsgEarthNet.uav[52] utilizationSecMission 38519.616605352
scalar OsgEarthNet.uav[52] utilizationSecMaintenance 14734.032173827
scalar OsgEarthNet.uav[52] utilizationSecCharge 189890
scalar OsgEarthNet.uav[52] utilizationSecIdle 16056.350220821
scalar OsgEarthNet.uav[52] utilizationEnergyMission 186767.50045389
scalar OsgEarthNet.uav[52] utilizationEnergyMaintenance 67624.574531555
scalar OsgEarthNet.uav[52] utilizationEnergyCharge 248770.31689453
scalar OsgEarthNet.uav[52] utilizationEnergyOverdrawMission 0
scalar OsgEarthNet.uav[52] utilizationEnergyOverdrawMaintenance 0
scalar OsgEarthNet.uav[52] utilizationCountMissions 54
scalar OsgEarthNet.uav[52] utilizationCountManeuversMission 1165
scalar OsgEarthNet.uav[52] utilizationCountManeuversMaintenance 109
scalar OsgEarthNet.uav[52] utilizationCountChargeState 54
scalar OsgEarthNet.uav[52] utilizationCountOverdrawnAfterMission 0
scalar OsgEarthNet.uav[52] utilizationCountIdleState 46
scalar OsgEarthNet.uav[52] utilizationFail 0
scalar OsgEarthNet.uav[52] simulationTime 259200
scalar OsgEarthNet.uav[53] utilizationSecMission 33978.245169719
scalar OsgEarthNet.uav[53] utilizationSecMaintenance 18550.107055036
scalar OsgEarthNet.uav[53] utilizationSecCharge 194338.88080131
scalar OsgEarthNet.uav[53] utilizationSecIdle 12332.765973934
scalar OsgEarthNet.uav[53] utilizationEnergyMission 163364.38576508
scalar OsgEarthNet.uav[53] utilizationEnergyMaintenance 89048.240932465
scalar OsgEarthNet.uav[53] utilizationEnergyCharge 251904.52319336
scalar OsgEarthNet.uav[53] utilizationEnergyOverdrawMission 0
scalar OsgEarthNet.uav[53] utilizationEnergyOverdrawMaintenance 0
scalar OsgEarthNet.uav[53] utilizationCountMissions 60
scalar OsgEarthNet.uav[53] utilizationCountManeuversMission 925
scalar OsgEarthNet.uav[53] utilizationCountManeuversMaintenance 120
scalar OsgEarthNet.uav[53] utilizationCountChargeState 60
scalar OsgEarthNet.uav[53] utilizationCountOverdrawnAfterMission 0
scalar OsgEarthNet.uav[53] utilizationCountIdleState 38
scalar OsgEarthNet.uav[53] utilizationFail 0
scalar OsgEarthNet.uav[53] simulationTime 259200
scalar OsgEarthNet.uav[54] utilizationSecMission 31794.008766591
scalar OsgEarthNet.uav[54] utilizationSecMaintenance 19781.365569001
scalar OsgEarthNet.uav[54] utilizationSecCharge 195507.30858258
scalar OsgEarthNet.uav[54] utilizationSecIdle 12117.316081831
scalar OsgEarthNet.uav[54] utilizationEnergyMission 153326.07110977
scalar OsgEarthNet.uav[54] utilizationEnergyMaintenance 93331.955242157
scalar OsgEarthNet.uav[54] utilizationEnergyCharge 245698.11547852
scalar OsgEarthNet.uav[54] utilizationEnergyOverdrawMission 0
scalar OsgEarthNet.uav[54] utilizationEnergyOverdrawMaintenance 0
scalar OsgEarthNet.uav[54] utilizationCountMissions 64
scalar OsgEarthNet.uav[54] utilizationCountManeuversMission 972
scalar OsgEarthNet.uav[54] utilizationCountManeuversMaintenance 128
scalar OsgEarthNet.uav[54] utilizationCountChargeState 64
scalar OsgEarthNet.uav[54] utilizationCountOverdrawnAfterMission 0
scalar OsgEarthNet.uav[54] utilizationCountIdleState 46
scalar OsgEarthNet.uav[54] utilizationFail 0
scalar OsgEarthNet.uav[54] simulationTime 259200
scalar OsgEarthNet.uav[55] utilizationSecMission 37156.818976606
scalar OsgEarthNet.uav[55] utilizationSecMaintenance 16251.179023394
scalar OsgEarthNet.uav[55] utilizationSecCharge 192670
scalar OsgEarthNet.uav[55] utilizationSecIdle 13122.001
scalar OsgEarthNet.uav[55] utilizationEnergyMission 183308.3695755
scalar OsgEarthNet.uav[55] utilizationEnergyMaintenance 75697.566898657
scalar OsgEarthNet.uav[55] utilizationEnergyCharge 252954.53027344
scalar OsgEarthNet.uav[55] utilizationEnergyOverdrawMission 0
scalar OsgEarthNet.uav[55] utilizationEnergyOverdrawMaintenance 0
scalar OsgEarthNet.uav[55] utilizationCountMissions 56
scalar OsgEarthNet.uav[55] utilizationCountManeuversMission 1293
scalar OsgEarthNet.uav[55] utilizationCountManeuversMaintenance 112
scalar OsgEarthNet.uav[55] utilizationCountChargeState 55
scalar OsgEarthNet.uav[55] utilizationCountOverdrawnAfterMission 0
scalar OsgEarthNet.uav[55] utilizationCountIdleState 42
scalar OsgEarthNet.uav[55] utilizationFail 0
scalar OsgEarthNet.uav[55] simulationTime 259200
scalar OsgEarthNet.uav[56] utilizationSecMission 35948.991203239
scalar OsgEarthNet.uav[56] utilizationSecMaintenance 23533.802117783
scalar OsgEarthNet.uav[56] utilizationSecCharge 195090
scalar OsgEarthNet.uav[56] utilizationSecIdle 4627.2056789781
scalar OsgEarthNet.uav[56] utilizationEnergyMission 175390.69980844
scalar OsgEarthNet.uav[56] utilizationEnergyMaintenance 111707.47791672
scalar OsgEarthNet.uav[56] utilizationEnergyCharge 283928.91845703
scalar OsgEarthNet.uav[56] utilizationEnergyOverdrawMission 0
scalar OsgEarthNet.uav[56] utilizationEnergyOverdrawMaintenance 0
scalar OsgEarthNet.uav[56] utilizationCountMissions 64
scalar OsgEarthNet.uav[56] utilizationCountManeuversMission 1221
scalar OsgEarthNet.uav[56] utilizationCountManeuversMaintenance 129
scalar OsgEarthNet.uav[56] utilizationCountChargeState 64
scalar OsgEarthNet.uav[56] utilizationCountOverdrawnAfterMission 0
scalar OsgEarthNet.uav[56] utilizationCountIdleState 8
scalar OsgEarthNet.uav[56] utilizationFail 0
scalar OsgEarthNet.uav[56] simulationTime 259200
scalar OsgEarthNet.uav[57] utilizationSecMission 32635.773173658
scalar OsgEarthNet.uav[57] utilizationSecMaintenance 19154.868292581
scalar OsgEarthNet.uav[57] utilizationSecCharge 193547.35353376
scalar OsgEarthNet.uav[57] utilizationSecIdle 13862.004
scalar OsgEarthNet.uav[57] utilizationEnergyMission 156252.29462051
scalar OsgEarthNet.uav[57] utilizationEnergyMaintenance 90585.736480713
scalar OsgEarthNet.uav[57] utilizationEnergyCharge 242089.58306885
scalar OsgEarthNet.uav[57] utilizationEnergyOverdrawMission 0
scalar OsgEarthNet.uav[57] utilizationEnergyOverdrawMaintenance 0
scalar OsgEarthNet.uav[57] utilizationCountMissions 64
scalar OsgEarthNet.uav[57] utilizationCountManeuversMission 958
scalar OsgEarthNet.uav[57] utilizationCountManeuversMaintenance 128
scalar OsgEarthNet.uav[57] utilizationCountChargeState 64
scalar OsgEarthNet.uav[57] utilizationCountOverdrawnAfterMission 0
scalar OsgEarthNet.uav[57] utilizationCountIdleState 43
scalar OsgEarthNet.uav[57] utilizationFail 0
scalar OsgEarthNet.uav[57] simulationTime 259200
scalar OsgEarthNet.uav[58] utilizationSecMission 37777.142114597
scalar OsgEarthNet.uav[58] utilizationSecMaintenance 15569.167637113
scalar OsgEarthNet.uav[58] utilizationSecCharge 190771.68624829
scalar OsgEarthNet.uav[58] utilizationSecIdle 15082.003
scalar OsgEarthNet.uav[58] utilizationEnergyMission 184021.87404251
scalar OsgEarthNet.uav[58] utilizationEnergyMaintenance 71831.258300781
scalar OsgEarthNet.uav[58] utilizationEnergyCharge 250735.44067383
scalar OsgEarthNet.uav[58] utilizationEnergyOverdrawMission 0
scalar OsgEarthNet.uav[58] utilizationEnergyOverdrawMaintenance 0
scalar OsgEarthNet.uav[58] utilizationCountMissions 55
scalar OsgEarthNet.uav[58] utilizationCountManeuversMission 1255
scalar OsgEarthNet.uav[58] utilizationCountManeuversMaintenance 110
scalar OsgEarthNet.uav[58] utilizationCountChargeState 55
scalar OsgEarthNet.uav[58] utilizationCountOverdrawnAfterMission 0
scalar OsgEarthNet.uav[58] utilizationCountIdleState 40
scalar OsgEarthNet.uav[58] utilizationFail 0
scalar OsgEarthNet.uav[58] simulationTime 259200
scalar OsgEarthNet.uav[59] utilizationSecMission 37977.504272248
scalar OsgEarthNet.uav[59] utilizationSecMaintenance 22323.386959093
scalar OsgEarthNet.uav[59] utilizationSecCharge 196136.96794692
scalar OsgEarthNet.uav[59] utilizationSecIdle 2762.139821739
scalar OsgEarthNet.uav[59] utilizationEnergyMission 183325.33905411
scalar OsgEarthNet.uav[59] utilizationEnergyMaintenance 105997.04985809
scalar OsgEarthNet.uav[59] utilizationEnergyCharge 285709.6171875
scalar OsgEarthNet.uav[59] utilizationEnergyOverdrawMission 0
scalar OsgEarthNet.uav[59] utilizationEnergyOverdrawMaintenance 0
scalar OsgEarthNet.uav[59] utilizationCountMissions 65
scalar OsgEarthNet.uav[59] utilizationCountManeuversMission 1170
scalar OsgEarthNet.uav[59] utilizationCountManeuversMaintenance 130
scalar OsgEarthNet.uav[59] utilizationCountChargeState 65
scalar OsgEarthNet.uav[59] utilizationCountOverdrawnAfterMission 0
scalar OsgEarthNet.uav[59] utilizationCountIdleState 8
scalar OsgEarthNet.uav[59] utilizationFail 0
scalar OsgEarthNet.uav[59] simulationTime 259200
scalar OsgEarthNet.uav[60] utilizationSecMission 36536.144892008
scalar OsgEarthNet.uav[60] utilizationSecMaintenance 22649.843784294
scalar OsgEarthNet.uav[60] utilizationSecCharge 195646.80664472
scalar OsgEarthNet.uav[60] utilizationSecIdle 4367.2036789781
scalar OsgEarthNet.uav[60] utilizationEnergyMission 176552.06021118
scalar OsgEarthNet.uav[60] utilizationEnergyMaintenance 106848.25549316
scalar OsgEarthNet.uav[60] utilizationEnergyCharge 282744.75195312
scalar OsgEarthNet.uav[60] utilizationEnergyOverdrawMission 0
scalar OsgEarthNet.uav[60] utilizationEnergyOverdrawMaintenance 0
scalar OsgEarthNet.uav[60] utilizationCountMissions 64
scalar OsgEarthNet.uav[60] utilizationCountManeuversMission 1167
scalar OsgEarthNet.uav[60] utilizationCountManeuversMaintenance 128
scalar OsgEarthNet.uav[60] utilizationCountChargeState 64
scalar OsgEarthNet.uav[60] utilizationCountOverdrawnAfterMission 0
scalar OsgEarthNet.uav[60] utilizationCountIdleState 8
scalar OsgEarthNet.uav[60] utilizationFail 0
scalar OsgEarthNet.uav[60] simulationTime 259200
scalar OsgEarthNet.uav[61] utilizationSecMission 36345.883783158
scalar OsgEarthNet.uav[61] utilizationSecMaintenance 18482.114216842
scalar OsgEarthNet.uav[61] utilizationSecCharge 197890
scalar OsgEarthNet.uav[61] utilizationSecIdle 6482.001
scalar OsgEarthNet.uav[61] utilizationEnergyMission 172446.32152939
scalar OsgEarthNet.uav[61] utilizationEnergyMaintenance 87922.000028393
scalar OsgEarthNet.uav[61] utilizationEnergyCharge 256483.58666992
scalar OsgEarthNet.uav[61] utilizationEnergyOverdrawMission 0
scalar OsgEarthNet.uav[61] utilizationEnergyOverdrawMaintenance 0
scalar OsgEarthNet.uav[61] utilizationCountMissions 62
scalar OsgEarthNet.uav[61] utilizationCountManeuversMission 898
scalar OsgEarthNet.uav[61] utilizationCountManeuversMaintenance 124
scalar OsgEarthNet.uav[61] utilizationCountChargeState 61
scalar OsgEarthNet.uav[61] utilizationCountOverdrawnAfterMission 0
scalar OsgEarthNet.uav[61] utilizationCountIdleState 35
scalar OsgEarthNet.uav[61] utilizationFail 0
scalar OsgEarthNet.uav[61] simulationTime 259200
scalar OsgEarthNet.uav[62] utilizationSecMission 37431.175840681
scalar OsgEarthNet.uav[62] utilizationSecMaintenance 15370.45400158
scalar OsgEarthNet.uav[62] utilizationSecCharge 192126.36915774
scalar OsgEarthNet.uav[62] utilizationSecIdle 14272
scalar OsgEarthNet.uav[62] utilizationEnergyMission 180705.63248446
scalar OsgEarthNet.uav[62] utilizationEnergyMaintenance 71815.626911163
scalar OsgEarthNet.uav[62] utilizationEnergyCharge 252411.5
scalar OsgEarthNet.uav[62] utilizationEnergyOverdrawMission 0
scalar OsgEarthNet.uav[62] utilizationEnergyOverdrawMaintenance 0
scalar OsgEarthNet.uav[62] utilizationCountMissions 55
scalar OsgEarthNet.uav[62] utilizationCountManeuversMission 1211
scalar OsgEarthNet.uav[62] utilizationCountManeuversMaintenance 109
scalar OsgEarthNet.uav[62] utilizationCountChargeState 55
scalar OsgEarthNet.uav[62] utilizationCountOverdrawnAfterMission 0
scalar OsgEarthNet.uav[62] utilizationCountIdleState 42
scalar OsgEarthNet.uav[62] utilizationFail 0
scalar OsgEarthNet.uav[62] simulationTime 259200
scalar OsgEarthNet.uav[63] utilizationSecMission 35372.323663299
scalar OsgEarthNet.uav[63] utilizationSecMaintenance 23580.475657723
scalar OsgEarthNet.uav[63] utilizationSecCharge 197690
scalar OsgEarthNet.uav[63] utilizationSecIdle 2557.1996789781
scalar OsgEarthNet.uav[63] utilizationEnergyMission 172531.20795307
scalar OsgEarthNet.uav[63] utilizationEnergyMaintenance 112350.47485352
scalar OsgEarthNet.uav[63] utilizationEnergyCharge 285680.17724609
scalar OsgEarthNet.uav[63] utilizationEnergyOverdrawMission 0
scalar OsgEarthNet.uav[63] utilizationEnergyOverdrawMaintenance 0
scalar OsgEarthNet.uav[63] utilizationCountMissions 64
scalar OsgEarthNet.uav[63] utilizationCountManeuversMission 1196
scalar OsgEarthNet.uav[63] utilizationCountManeuversMaintenance 129
scalar OsgEarthNet.uav[63] utilizationCountChargeState 64
scalar OsgEarthNet.uav[63] utilizationCountOverdrawnAfterMission 0
scalar OsgEarthNet.uav[63] utilizationCountIdleState 10
scalar OsgEarthNet.uav[63] utilizationFail 0
scalar OsgEarthNet.uav[63] simulationTime 259200
scalar OsgEarthNet.uav[64] utilizationSecMission 33230.646324578
scalar OsgEarthNet.uav[64] utilizationSecMaintenance 19480.293751445
scalar OsgEarthNet.uav[64] utilizationSecCharge 195520
scalar OsgEarthNet.uav[64] utilizationSecIdle 10969.058923977
scalar OsgEarthNet.uav[64] utilizationEnergyMission 164385.45139313
scalar OsgEarthNet.uav[64] utilizationEnergyMaintenance 92554.126255035
scalar OsgEarthNet.uav[64] utilizationEnergyCharge 253972.1328125
scalar OsgEarthNet.uav[64] utilizationEnergyOverdrawMission 0
scalar OsgEarthNet.uav[64] utilizationEnergyOverdrawMaintenance 0
scalar OsgEarthNet.uav[64] utilizationCountMissions 59
scalar OsgEarthNet.uav[64] utilizationCountManeuversMission 1088
scalar OsgEarthNet.uav[64] utilizationCountManeuversMaintenance 118
scalar OsgEarthNet.uav[64] utilizationCountChargeState 59
scalar OsgEarthNet.uav[64] utilizationCountOverdrawnAfterMission 0
scalar OsgEarthNet.uav[64] utilizationCountIdleState 39
scalar OsgEarthNet.uav[64] utilizationFail 0
scalar OsgEarthNet.uav[64] simulationTime 259200
scalar OsgEarthNet.cs[0] usedPower 4034751.6164413
scalar OsgEarthNet.cs[0] chargedPower 4034751.6164413
scalar OsgEarthNet.cs[0] chargedMobileNodes 100
scalar OsgEarthNet.cs[0] reservations 915
scalar OsgEarthNet.cs[1] usedPower 5722622.5305995
scalar OsgEarthNet.cs[1] chargedPower 5722622.5305995
scalar OsgEarthNet.cs[1] chargedMobileNodes 971
scalar OsgEarthNet.cs[1] reservations 1422
scalar OsgEarthNet.cs[2] usedPower 6972409.8306275
scalar OsgEarthNet.cs[2] chargedPower 6972409.8306275
scalar OsgEarthNet.cs[2] chargedMobileNodes 1233
scalar OsgEarthNet.cs[2] reservations 1522

