version 2
run Szenario_Hotel_Gabelbach-187-20180712-04:49:44-18148
attr configname Szenario_Hotel_Gabelbach
attr datetime 20180712-04:49:44
attr experiment Szenario_Hotel_Gabelbach
attr inifile omnetpp.ini
attr iterationvars "$replM=2, $biWeight=0.35, $replSearchM=1, $numUAVs=85"
attr iterationvarsf replM=2,biWeight=0.35,replSearchM=1,numUAVs=85-
attr measurement "$replM=2, $biWeight=0.35, $replSearchM=1, $numUAVs=85"
attr network OsgEarthNet
attr processid 18148
attr repetition 7
attr replication #7
attr resultdir results
attr runnumber 187
attr seedset 187
itervar biWeight 0.35
itervar numUAVs 85
itervar replM 2
itervar replSearchM 1
param *.osgEarthScene.scene "\"Szenario_Hotel_Gabelbach.earth\""
param *.playgroundLatitude 50.6830269
param *.playgroundLongitude 10.8538055
param *.playgroundWidth 3500m
param *.playgroundHeight 3500m
param *.cs[0].posX 3537m
param *.cs[0].posY 965m
param *.cs[0].posZ 538m
param *.cs[1].posX 312m
param *.cs[1].posY 1262m
param *.cs[1].posZ 539m
param *.cs[2].posX 2185m
param *.cs[2].posY 3026m
param *.cs[2].posZ 777m
param *.cs[3].posX 10m
param *.cs[3].posY 2200m
param *.cs[3].posZ 560m
param *.cs[4].posX 750m
param *.cs[4].posY 200m
param *.cs[4].posZ 540m
param *.cs[5].posX 2450m
param *.cs[5].posY 180m
param *.cs[5].posZ 524m
param *.cs[6].posX 3140m
param *.cs[6].posY 1790m
param *.cs[6].posZ 606m
param *.numCSs 3
param *.uav[*].replacementMethod 2
param *.uav[*].weightedSumWeight 0.35
param *.missionControl.replacementSearchMethod 1
param *.numUAVs 85
param *.numCSs 3
param *.numUAVs 100
param *.*.timeStep 10s
param *.uav[*].commandPreviewCommandCount 20
param *.missionControl.missionFiles "\"missions\\\\Szenario_WB_Hotel_Gabelbach_Mission_Hotel.waypoints,missions\\\\Szenario_WB_Hotel_Gabelbach_Mission_Kickelhahn.waypoints,missions\\\\Szenario_WB_Hotel_Gabelbach_Mission_Ilmenau_Sportplatz.waypoints,missions\\\\Szenario_WB_Hotel_Gabelbach_Mission_Manebach_Mitte.waypoints,missions\\\\Szenario_WB_Hotel_Gabelbach_Mission_Manebach_Sued.waypoints,missions\\\\Szenario_WB_Hotel_Gabelbach_Hover_HoheSchlaufe.waypoints,missions\\\\Szenario_WB_Hotel_Gabelbach_Hover_Kickelhahn.waypoints,missions\\\\Szenario_WB_Hotel_Gabelbach_Hover_Gabelbachskopf.waypoints,missions\\\\Szenario_WB_Hotel_Gabelbach_Hover_Dachskopf.waypoints\""
param *.uav[0].startX 3537m
param *.uav[0].startY 965m
param *.uav[0].startZ 539m
param *.uav[1].startX 312m
param *.uav[1].startY 1262m
param *.uav[1].startZ 540m
param *.uav[2].startX 2185m
param *.uav[2].startY 3026m
param *.uav[2].startZ 778m
param *.uav[3].startX 3537m
param *.uav[3].startY 965m
param *.uav[3].startZ 539m
param *.uav[4].startX 312m
param *.uav[4].startY 1262m
param *.uav[4].startZ 540m
param *.uav[5].startX 2185m
param *.uav[5].startY 3026m
param *.uav[5].startZ 778m
param *.uav[6].startX 3537m
param *.uav[6].startY 965m
param *.uav[6].startZ 539m
param *.uav[7].startX 312m
param *.uav[7].startY 1262m
param *.uav[7].startZ 540m
param *.uav[8].startX 2185m
param *.uav[8].startY 3026m
param *.uav[8].startZ 778m
param *.uav[9].startX 3537m
param *.uav[9].startY 965m
param *.uav[9].startZ 539m
param *.uav[10].startX 3537m
param *.uav[10].startY 965m
param *.uav[10].startZ 539m
param *.uav[11].startX 312m
param *.uav[11].startY 1262m
param *.uav[11].startZ 540m
param *.uav[12].startX 2185m
param *.uav[12].startY 3026m
param *.uav[12].startZ 778m
param *.uav[13].startX 3537m
param *.uav[13].startY 965m
param *.uav[13].startZ 539m
param *.uav[14].startX 312m
param *.uav[14].startY 1262m
param *.uav[14].startZ 540m
param *.uav[15].startX 2185m
param *.uav[15].startY 3026m
param *.uav[15].startZ 778m
param *.uav[16].startX 3537m
param *.uav[16].startY 965m
param *.uav[16].startZ 539m
param *.uav[17].startX 312m
param *.uav[17].startY 1262m
param *.uav[17].startZ 540m
param *.uav[18].startX 2185m
param *.uav[18].startY 3026m
param *.uav[18].startZ 778m
param *.uav[19].startX 3537m
param *.uav[19].startY 965m
param *.uav[19].startZ 539m
param *.uav[20].startX 3537m
param *.uav[20].startY 965m
param *.uav[20].startZ 539m
param *.uav[21].startX 312m
param *.uav[21].startY 1262m
param *.uav[21].startZ 540m
param *.uav[22].startX 2185m
param *.uav[22].startY 3026m
param *.uav[22].startZ 778m
param *.uav[23].startX 3537m
param *.uav[23].startY 965m
param *.uav[23].startZ 539m
param *.uav[24].startX 312m
param *.uav[24].startY 1262m
param *.uav[24].startZ 540m
param *.uav[25].startX 2185m
param *.uav[25].startY 3026m
param *.uav[25].startZ 778m
param *.uav[26].startX 3537m
param *.uav[26].startY 965m
param *.uav[26].startZ 539m
param *.uav[27].startX 312m
param *.uav[27].startY 1262m
param *.uav[27].startZ 540m
param *.uav[28].startX 2185m
param *.uav[28].startY 3026m
param *.uav[28].startZ 778m
param *.uav[29].startX 3537m
param *.uav[29].startY 965m
param *.uav[29].startZ 539m
param *.uav[30].startX 3537m
param *.uav[30].startY 965m
param *.uav[30].startZ 539m
param *.uav[31].startX 312m
param *.uav[31].startY 1262m
param *.uav[31].startZ 540m
param *.uav[32].startX 2185m
param *.uav[32].startY 3026m
param *.uav[32].startZ 778m
param *.uav[33].startX 3537m
param *.uav[33].startY 965m
param *.uav[33].startZ 539m
param *.uav[34].startX 312m
param *.uav[34].startY 1262m
param *.uav[34].startZ 540m
param *.uav[35].startX 2185m
param *.uav[35].startY 3026m
param *.uav[35].startZ 778m
param *.uav[36].startX 3537m
param *.uav[36].startY 965m
param *.uav[36].startZ 539m
param *.uav[37].startX 312m
param *.uav[37].startY 1262m
param *.uav[37].startZ 540m
param *.uav[38].startX 2185m
param *.uav[38].startY 3026m
param *.uav[38].startZ 778m
param *.uav[39].startX 3537m
param *.uav[39].startY 965m
param *.uav[39].startZ 539m
param *.uav[40].startX 3537m
param *.uav[40].startY 965m
param *.uav[40].startZ 539m
param *.uav[41].startX 312m
param *.uav[41].startY 1262m
param *.uav[41].startZ 540m
param *.uav[42].startX 2185m
param *.uav[42].startY 3026m
param *.uav[42].startZ 778m
param *.uav[43].startX 3537m
param *.uav[43].startY 965m
param *.uav[43].startZ 539m
param *.uav[44].startX 312m
param *.uav[44].startY 1262m
param *.uav[44].startZ 540m
param *.uav[45].startX 2185m
param *.uav[45].startY 3026m
param *.uav[45].startZ 778m
param *.uav[46].startX 3537m
param *.uav[46].startY 965m
param *.uav[46].startZ 539m
param *.uav[47].startX 312m
param *.uav[47].startY 1262m
param *.uav[47].startZ 540m
param *.uav[48].startX 2185m
param *.uav[48].startY 3026m
param *.uav[48].startZ 778m
param *.uav[49].startX 3537m
param *.uav[49].startY 965m
param *.uav[49].startZ 539m
param *.uav[50].startX 3537m
param *.uav[50].startY 965m
param *.uav[50].startZ 539m
param *.uav[51].startX 312m
param *.uav[51].startY 1262m
param *.uav[51].startZ 540m
param *.uav[52].startX 2185m
param *.uav[52].startY 3026m
param *.uav[52].startZ 778m
param *.uav[53].startX 3537m
param *.uav[53].startY 965m
param *.uav[53].startZ 539m
param *.uav[54].startX 312m
param *.uav[54].startY 1262m
param *.uav[54].startZ 540m
param *.uav[55].startX 2185m
param *.uav[55].startY 3026m
param *.uav[55].startZ 778m
param *.uav[56].startX 3537m
param *.uav[56].startY 965m
param *.uav[56].startZ 539m
param *.uav[57].startX 312m
param *.uav[57].startY 1262m
param *.uav[57].startZ 540m
param *.uav[58].startX 2185m
param *.uav[58].startY 3026m
param *.uav[58].startZ 778m
param *.uav[59].startX 3537m
param *.uav[59].startY 965m
param *.uav[59].startZ 539m
param *.uav[60].startX 3537m
param *.uav[60].startY 965m
param *.uav[60].startZ 539m
param *.uav[61].startX 312m
param *.uav[61].startY 1262m
param *.uav[61].startZ 540m
param *.uav[62].startX 2185m
param *.uav[62].startY 3026m
param *.uav[62].startZ 778m
param *.uav[63].startX 3537m
param *.uav[63].startY 965m
param *.uav[63].startZ 539m
param *.uav[64].startX 312m
param *.uav[64].startY 1262m
param *.uav[64].startZ 540m
param *.uav[65].startX 2185m
param *.uav[65].startY 3026m
param *.uav[65].startZ 778m
param *.uav[66].startX 3537m
param *.uav[66].startY 965m
param *.uav[66].startZ 539m
param *.uav[67].startX 312m
param *.uav[67].startY 1262m
param *.uav[67].startZ 540m
param *.uav[68].startX 2185m
param *.uav[68].startY 3026m
param *.uav[68].startZ 778m
param *.uav[69].startX 3537m
param *.uav[69].startY 965m
param *.uav[69].startZ 539m
param *.uav[70].startX 3537m
param *.uav[70].startY 965m
param *.uav[70].startZ 539m
param *.uav[71].startX 312m
param *.uav[71].startY 1262m
param *.uav[71].startZ 540m
param *.uav[72].startX 2185m
param *.uav[72].startY 3026m
param *.uav[72].startZ 778m
param *.uav[73].startX 3537m
param *.uav[73].startY 965m
param *.uav[73].startZ 539m
param *.uav[74].startX 312m
param *.uav[74].startY 1262m
param *.uav[74].startZ 540m
param *.uav[75].startX 2185m
param *.uav[75].startY 3026m
param *.uav[75].startZ 778m
param *.uav[76].startX 3537m
param *.uav[76].startY 965m
param *.uav[76].startZ 539m
param *.uav[77].startX 312m
param *.uav[77].startY 1262m
param *.uav[77].startZ 540m
param *.uav[78].startX 2185m
param *.uav[78].startY 3026m
param *.uav[78].startZ 778m
param *.uav[79].startX 3537m
param *.uav[79].startY 965m
param *.uav[79].startZ 539m
param *.uav[80].startX 3537m
param *.uav[80].startY 965m
param *.uav[80].startZ 539m
param *.uav[81].startX 312m
param *.uav[81].startY 1262m
param *.uav[81].startZ 540m
param *.uav[82].startX 2185m
param *.uav[82].startY 3026m
param *.uav[82].startZ 778m
param *.uav[83].startX 3537m
param *.uav[83].startY 965m
param *.uav[83].startZ 539m
param *.uav[84].startX 312m
param *.uav[84].startY 1262m
param *.uav[84].startZ 540m
param *.uav[85].startX 2185m
param *.uav[85].startY 3026m
param *.uav[85].startZ 778m
param *.uav[86].startX 3537m
param *.uav[86].startY 965m
param *.uav[86].startZ 539m
param *.uav[87].startX 312m
param *.uav[87].startY 1262m
param *.uav[87].startZ 540m
param *.uav[88].startX 2185m
param *.uav[88].startY 3026m
param *.uav[88].startZ 778m
param *.uav[89].startX 3537m
param *.uav[89].startY 965m
param *.uav[89].startZ 539m
param *.uav[90].startX 3537m
param *.uav[90].startY 965m
param *.uav[90].startZ 539m
param *.uav[91].startX 312m
param *.uav[91].startY 1262m
param *.uav[91].startZ 540m
param *.uav[92].startX 2185m
param *.uav[92].startY 3026m
param *.uav[92].startZ 778m
param *.uav[93].startX 3537m
param *.uav[93].startY 965m
param *.uav[93].startZ 539m
param *.uav[94].startX 312m
param *.uav[94].startY 1262m
param *.uav[94].startZ 540m
param *.uav[95].startX 2185m
param *.uav[95].startY 3026m
param *.uav[95].startZ 778m
param *.uav[96].startX 3537m
param *.uav[96].startY 965m
param *.uav[96].startZ 539m
param *.uav[97].startX 312m
param *.uav[97].startY 1262m
param *.uav[97].startZ 540m
param *.uav[98].startX 2185m
param *.uav[98].startY 3026m
param *.uav[98].startZ 778m
param *.uav[99].startX 3537m
param *.uav[99].startY 965m
param *.uav[99].startZ 539m
param *.osgEarthScene.scene "\"boston.earth\""
param *.playgroundLatitude 42.3558
param *.playgroundLongitude -71.0677
param *.playgroundWidth 400m
param *.playgroundHeight 200m
param *.channelController.connectionColor "\"#0000FF40\""
param *.channelController.showConnections false
param *.uav[*].modelURL "\"quadrocopter.small.obj.15.scale.0,0,90.rot\""
param *.uav[*].labelColor "\"#FF7C00CC\""
param *.uav[*].label2Color "\"#FF7C00EE\""
param *.uav[*].batteryCapacity 5200mAh
param *.uav[*].batteryRemaining uav[index].batteryCapacity
param *.uav[*].predictionQuantile 0.95
param *.uav[*].replacementMethod 2
param *.uav[*].weightedSumWeight 0.5
param *.cs[*].modelURL "\"chargingstation_v1.osgt.2.scale.0,0,0.rot.0,0,-15e-1.trans\""
param *.cs[*].spotsWaiting 999
param *.cs[*].spotsCharging 999
param *.cs[*].chargeEffectivenessPercentage 100
param *.cs[*].nonLinearPhaseStartPercentage 85
param *.cs[*].chargeCurrent 6.0A
param *.cs[*].prioritizeFastCharge true
param *.missionControl.replacementSearchMethod 0
param *.*.timeStep 9s

scalar OsgEarthNet.uav[0] utilizationSecMission 440
scalar OsgEarthNet.uav[0] utilizationSecMaintenance 447.1303002674
scalar OsgEarthNet.uav[0] utilizationSecCharge 3520
scalar OsgEarthNet.uav[0] utilizationSecIdle 254792.86869973
scalar OsgEarthNet.uav[0] utilizationEnergyMission 1982.783657074
scalar OsgEarthNet.uav[0] utilizationEnergyMaintenance 2117.6447257996
scalar OsgEarthNet.uav[0] utilizationEnergyCharge 4527.6674804688
scalar OsgEarthNet.uav[0] utilizationEnergyOverdrawMission 0
scalar OsgEarthNet.uav[0] utilizationEnergyOverdrawMaintenance 0
scalar OsgEarthNet.uav[0] utilizationCountMissions 1
scalar OsgEarthNet.uav[0] utilizationCountManeuversMission 22
scalar OsgEarthNet.uav[0] utilizationCountManeuversMaintenance 2
scalar OsgEarthNet.uav[0] utilizationCountChargeState 1
scalar OsgEarthNet.uav[0] utilizationCountOverdrawnAfterMission 0
scalar OsgEarthNet.uav[0] utilizationCountIdleState 2
scalar OsgEarthNet.uav[0] utilizationFail 0
scalar OsgEarthNet.uav[0] simulationTime 259200
scalar OsgEarthNet.uav[1] utilizationSecMission 1365.8956630072
scalar OsgEarthNet.uav[1] utilizationSecMaintenance 586.87436041922
scalar OsgEarthNet.uav[1] utilizationSecCharge 7000
scalar OsgEarthNet.uav[1] utilizationSecIdle 250247.22897657
scalar OsgEarthNet.uav[1] utilizationEnergyMission 6375.8349914551
scalar OsgEarthNet.uav[1] utilizationEnergyMaintenance 2703.9623146057
scalar OsgEarthNet.uav[1] utilizationEnergyCharge 9079.7993164062
scalar OsgEarthNet.uav[1] utilizationEnergyOverdrawMission 0
scalar OsgEarthNet.uav[1] utilizationEnergyOverdrawMaintenance 0
scalar OsgEarthNet.uav[1] utilizationCountMissions 2
scalar OsgEarthNet.uav[1] utilizationCountManeuversMission 24
scalar OsgEarthNet.uav[1] utilizationCountManeuversMaintenance 4
scalar OsgEarthNet.uav[1] utilizationCountChargeState 2
scalar OsgEarthNet.uav[1] utilizationCountOverdrawnAfterMission 0
scalar OsgEarthNet.uav[1] utilizationCountIdleState 3
scalar OsgEarthNet.uav[1] utilizationFail 0
scalar OsgEarthNet.uav[1] simulationTime 259200
scalar OsgEarthNet.uav[2] utilizationSecMission 43180.770197347
scalar OsgEarthNet.uav[2] utilizationSecMaintenance 18137.020715087
scalar OsgEarthNet.uav[2] utilizationSecCharge 196030.75512885
scalar OsgEarthNet.uav[2] utilizationSecIdle 1851.4529587171
scalar OsgEarthNet.uav[2] utilizationEnergyMission 209481.73524475
scalar OsgEarthNet.uav[2] utilizationEnergyMaintenance 83779.056072235
scalar OsgEarthNet.uav[2] utilizationEnergyCharge 288161.63012695
scalar OsgEarthNet.uav[2] utilizationEnergyOverdrawMission 0
scalar OsgEarthNet.uav[2] utilizationEnergyOverdrawMaintenance 0
scalar OsgEarthNet.uav[2] utilizationCountMissions 64
scalar OsgEarthNet.uav[2] utilizationCountManeuversMission 1227
scalar OsgEarthNet.uav[2] utilizationCountManeuversMaintenance 128
scalar OsgEarthNet.uav[2] utilizationCountChargeState 64
scalar OsgEarthNet.uav[2] utilizationCountOverdrawnAfterMission 0
scalar OsgEarthNet.uav[2] utilizationCountIdleState 3
scalar OsgEarthNet.uav[2] utilizationFail 0
scalar OsgEarthNet.uav[2] simulationTime 259200
scalar OsgEarthNet.uav[3] utilizationSecMission 760.62515258028
scalar OsgEarthNet.uav[3] utilizationSecMaintenance 280.27216773088
scalar OsgEarthNet.uav[3] utilizationSecCharge 3700
scalar OsgEarthNet.uav[3] utilizationSecIdle 254459.10167969
scalar OsgEarthNet.uav[3] utilizationEnergyMission 3591.3063964844
scalar OsgEarthNet.uav[3] utilizationEnergyMaintenance 1313.7447929382
scalar OsgEarthNet.uav[3] utilizationEnergyCharge 4905.0522460938
scalar OsgEarthNet.uav[3] utilizationEnergyOverdrawMission 0
scalar OsgEarthNet.uav[3] utilizationEnergyOverdrawMaintenance 0
scalar OsgEarthNet.uav[3] utilizationCountMissions 1
scalar OsgEarthNet.uav[3] utilizationCountManeuversMission 12
scalar OsgEarthNet.uav[3] utilizationCountManeuversMaintenance 2
scalar OsgEarthNet.uav[3] utilizationCountChargeState 1
scalar OsgEarthNet.uav[3] utilizationCountOverdrawnAfterMission 0
scalar OsgEarthNet.uav[3] utilizationCountIdleState 2
scalar OsgEarthNet.uav[3] utilizationFail 0
scalar OsgEarthNet.uav[3] simulationTime 259200
scalar OsgEarthNet.uav[4] utilizationSecMission 11685.607192361
scalar OsgEarthNet.uav[4] utilizationSecMaintenance 8669.6261576924
scalar OsgEarthNet.uav[4] utilizationSecCharge 79870
scalar OsgEarthNet.uav[4] utilizationSecIdle 158974.76564995
scalar OsgEarthNet.uav[4] utilizationEnergyMission 57672.470638275
scalar OsgEarthNet.uav[4] utilizationEnergyMaintenance 41328.44486618
scalar OsgEarthNet.uav[4] utilizationEnergyCharge 98684.693603516
scalar OsgEarthNet.uav[4] utilizationEnergyOverdrawMission 0
scalar OsgEarthNet.uav[4] utilizationEnergyOverdrawMaintenance 0
scalar OsgEarthNet.uav[4] utilizationCountMissions 25
scalar OsgEarthNet.uav[4] utilizationCountManeuversMission 442
scalar OsgEarthNet.uav[4] utilizationCountManeuversMaintenance 50
scalar OsgEarthNet.uav[4] utilizationCountChargeState 25
scalar OsgEarthNet.uav[4] utilizationCountOverdrawnAfterMission 0
scalar OsgEarthNet.uav[4] utilizationCountIdleState 26
scalar OsgEarthNet.uav[4] utilizationFail 0
scalar OsgEarthNet.uav[4] simulationTime 259200
scalar OsgEarthNet.uav[5] utilizationSecMission 42981.169931218
scalar OsgEarthNet.uav[5] utilizationSecMaintenance 18251.136539136
scalar OsgEarthNet.uav[5] utilizationSecCharge 196655.69052965
scalar OsgEarthNet.uav[5] utilizationSecIdle 1312.002
scalar OsgEarthNet.uav[5] utilizationEnergyMission 208159.53447723
scalar OsgEarthNet.uav[5] utilizationEnergyMaintenance 83166.456207275
scalar OsgEarthNet.uav[5] utilizationEnergyCharge 289547.90478516
scalar OsgEarthNet.uav[5] utilizationEnergyOverdrawMission 0
scalar OsgEarthNet.uav[5] utilizationEnergyOverdrawMaintenance 0
scalar OsgEarthNet.uav[5] utilizationCountMissions 64
scalar OsgEarthNet.uav[5] utilizationCountManeuversMission 1381
scalar OsgEarthNet.uav[5] utilizationCountManeuversMaintenance 128
scalar OsgEarthNet.uav[5] utilizationCountChargeState 64
scalar OsgEarthNet.uav[5] utilizationCountOverdrawnAfterMission 0
scalar OsgEarthNet.uav[5] utilizationCountIdleState 4
scalar OsgEarthNet.uav[5] utilizationFail 0
scalar OsgEarthNet.uav[5] simulationTime 259200
scalar OsgEarthNet.uav[6] utilizationSecMission 11655.884411973
scalar OsgEarthNet.uav[6] utilizationSecMaintenance 6529.0690212601
scalar OsgEarthNet.uav[6] utilizationSecCharge 64653.043566767
scalar OsgEarthNet.uav[6] utilizationSecIdle 176362.002
scalar OsgEarthNet.uav[6] utilizationEnergyMission 54824.416904449
scalar OsgEarthNet.uav[6] utilizationEnergyMaintenance 30827.235843658
scalar OsgEarthNet.uav[6] utilizationEnergyCharge 83936.681640625
scalar OsgEarthNet.uav[6] utilizationEnergyOverdrawMission 0
scalar OsgEarthNet.uav[6] utilizationEnergyOverdrawMaintenance 0
scalar OsgEarthNet.uav[6] utilizationCountMissions 19
scalar OsgEarthNet.uav[6] utilizationCountManeuversMission 344
scalar OsgEarthNet.uav[6] utilizationCountManeuversMaintenance 38
scalar OsgEarthNet.uav[6] utilizationCountChargeState 19
scalar OsgEarthNet.uav[6] utilizationCountOverdrawnAfterMission 0
scalar OsgEarthNet.uav[6] utilizationCountIdleState 19
scalar OsgEarthNet.uav[6] utilizationFail 0
scalar OsgEarthNet.uav[6] simulationTime 259200
scalar OsgEarthNet.uav[7] utilizationSecMission 41776.023754972
scalar OsgEarthNet.uav[7] utilizationSecMaintenance 18533.433820995
scalar OsgEarthNet.uav[7] utilizationSecCharge 195022.13936984
scalar OsgEarthNet.uav[7] utilizationSecIdle 3868.4020541891
scalar OsgEarthNet.uav[7] utilizationEnergyMission 200739.79705811
scalar OsgEarthNet.uav[7] utilizationEnergyMaintenance 85570.864589691
scalar OsgEarthNet.uav[7] utilizationEnergyCharge 286391.12255859
scalar OsgEarthNet.uav[7] utilizationEnergyOverdrawMission 0
scalar OsgEarthNet.uav[7] utilizationEnergyOverdrawMaintenance 0
scalar OsgEarthNet.uav[7] utilizationCountMissions 63
scalar OsgEarthNet.uav[7] utilizationCountManeuversMission 1179
scalar OsgEarthNet.uav[7] utilizationCountManeuversMaintenance 126
scalar OsgEarthNet.uav[7] utilizationCountChargeState 63
scalar OsgEarthNet.uav[7] utilizationCountOverdrawnAfterMission 0
scalar OsgEarthNet.uav[7] utilizationCountIdleState 2
scalar OsgEarthNet.uav[7] utilizationFail 0
scalar OsgEarthNet.uav[7] simulationTime 259200
scalar OsgEarthNet.uav[8] utilizationSecMission 41284.426470262
scalar OsgEarthNet.uav[8] utilizationSecMaintenance 20448.942296434
scalar OsgEarthNet.uav[8] utilizationSecCharge 196134.6282333
scalar OsgEarthNet.uav[8] utilizationSecIdle 1332.002
scalar OsgEarthNet.uav[8] utilizationEnergyMission 200428.965168
scalar OsgEarthNet.uav[8] utilizationEnergyMaintenance 93500.772209168
scalar OsgEarthNet.uav[8] utilizationEnergyCharge 291916.97485352
scalar OsgEarthNet.uav[8] utilizationEnergyOverdrawMission 0
scalar OsgEarthNet.uav[8] utilizationEnergyOverdrawMaintenance 0
scalar OsgEarthNet.uav[8] utilizationCountMissions 65
scalar OsgEarthNet.uav[8] utilizationCountManeuversMission 1299
scalar OsgEarthNet.uav[8] utilizationCountManeuversMaintenance 130
scalar OsgEarthNet.uav[8] utilizationCountChargeState 65
scalar OsgEarthNet.uav[8] utilizationCountOverdrawnAfterMission 0
scalar OsgEarthNet.uav[8] utilizationCountIdleState 2
scalar OsgEarthNet.uav[8] utilizationFail 0
scalar OsgEarthNet.uav[8] simulationTime 259200
scalar OsgEarthNet.uav[9] utilizationSecMission 8132.2425715706
scalar OsgEarthNet.uav[9] utilizationSecMaintenance 5902.0190530055
scalar OsgEarthNet.uav[9] utilizationSecCharge 52520
scalar OsgEarthNet.uav[9] utilizationSecIdle 192645.73737542
scalar OsgEarthNet.uav[9] utilizationEnergyMission 40081.518001556
scalar OsgEarthNet.uav[9] utilizationEnergyMaintenance 27911.272327423
scalar OsgEarthNet.uav[9] utilizationEnergyCharge 67425.583984375
scalar OsgEarthNet.uav[9] utilizationEnergyOverdrawMission 0
scalar OsgEarthNet.uav[9] utilizationEnergyOverdrawMaintenance 0
scalar OsgEarthNet.uav[9] utilizationCountMissions 15
scalar OsgEarthNet.uav[9] utilizationCountManeuversMission 307
scalar OsgEarthNet.uav[9] utilizationCountManeuversMaintenance 30
scalar OsgEarthNet.uav[9] utilizationCountChargeState 15
scalar OsgEarthNet.uav[9] utilizationCountOverdrawnAfterMission 0
scalar OsgEarthNet.uav[9] utilizationCountIdleState 16
scalar OsgEarthNet.uav[9] utilizationFail 0
scalar OsgEarthNet.uav[9] simulationTime 259200
scalar OsgEarthNet.uav[10] utilizationSecMission 7202.5006103211
scalar OsgEarthNet.uav[10] utilizationSecMaintenance 5061.4509837251
scalar OsgEarthNet.uav[10] utilizationSecCharge 45940
scalar OsgEarthNet.uav[10] utilizationSecIdle 200996.04740595
scalar OsgEarthNet.uav[10] utilizationEnergyMission 33716.302333832
scalar OsgEarthNet.uav[10] utilizationEnergyMaintenance 24072.221858978
scalar OsgEarthNet.uav[10] utilizationEnergyCharge 59260.767578125
scalar OsgEarthNet.uav[10] utilizationEnergyOverdrawMission 0
scalar OsgEarthNet.uav[10] utilizationEnergyOverdrawMaintenance 0
scalar OsgEarthNet.uav[10] utilizationCountMissions 13
scalar OsgEarthNet.uav[10] utilizationCountManeuversMission 256
scalar OsgEarthNet.uav[10] utilizationCountManeuversMaintenance 26
scalar OsgEarthNet.uav[10] utilizationCountChargeState 13
scalar OsgEarthNet.uav[10] utilizationCountOverdrawnAfterMission 0
scalar OsgEarthNet.uav[10] utilizationCountIdleState 14
scalar OsgEarthNet.uav[10] utilizationFail 0
scalar OsgEarthNet.uav[10] simulationTime 259200
scalar OsgEarthNet.uav[11] utilizationSecMission 20130.305514487
scalar OsgEarthNet.uav[11] utilizationSecMaintenance 14187.873537581
scalar OsgEarthNet.uav[11] utilizationSecCharge 134330
scalar OsgEarthNet.uav[11] utilizationSecIdle 90551.819947932
scalar OsgEarthNet.uav[11] utilizationEnergyMission 98797.332645416
scalar OsgEarthNet.uav[11] utilizationEnergyMaintenance 67057.06414032
scalar OsgEarthNet.uav[11] utilizationEnergyCharge 166411.03759766
scalar OsgEarthNet.uav[11] utilizationEnergyOverdrawMission 0
scalar OsgEarthNet.uav[11] utilizationEnergyOverdrawMaintenance 0
scalar OsgEarthNet.uav[11] utilizationCountMissions 42
scalar OsgEarthNet.uav[11] utilizationCountManeuversMission 693
scalar OsgEarthNet.uav[11] utilizationCountManeuversMaintenance 84
scalar OsgEarthNet.uav[11] utilizationCountChargeState 42
scalar OsgEarthNet.uav[11] utilizationCountOverdrawnAfterMission 0
scalar OsgEarthNet.uav[11] utilizationCountIdleState 43
scalar OsgEarthNet.uav[11] utilizationFail 0
scalar OsgEarthNet.uav[11] simulationTime 259200
scalar OsgEarthNet.uav[12] utilizationSecMission 41789.693849107
scalar OsgEarthNet.uav[12] utilizationSecMaintenance 18509.597093665
scalar OsgEarthNet.uav[12] utilizationSecCharge 195500
scalar OsgEarthNet.uav[12] utilizationSecIdle 3400.7080572282
scalar OsgEarthNet.uav[12] utilizationEnergyMission 203282.13432723
scalar OsgEarthNet.uav[12] utilizationEnergyMaintenance 84435.787830353
scalar OsgEarthNet.uav[12] utilizationEnergyCharge 285357.26953125
scalar OsgEarthNet.uav[12] utilizationEnergyOverdrawMission 0
scalar OsgEarthNet.uav[12] utilizationEnergyOverdrawMaintenance 0
scalar OsgEarthNet.uav[12] utilizationCountMissions 63
scalar OsgEarthNet.uav[12] utilizationCountManeuversMission 1345
scalar OsgEarthNet.uav[12] utilizationCountManeuversMaintenance 127
scalar OsgEarthNet.uav[12] utilizationCountChargeState 63
scalar OsgEarthNet.uav[12] utilizationCountOverdrawnAfterMission 0
scalar OsgEarthNet.uav[12] utilizationCountIdleState 5
scalar OsgEarthNet.uav[12] utilizationFail 0
scalar OsgEarthNet.uav[12] simulationTime 259200
scalar OsgEarthNet.uav[13] utilizationSecMission 18120.690668834
scalar OsgEarthNet.uav[13] utilizationSecMaintenance 10325.305520807
scalar OsgEarthNet.uav[13] utilizationSecCharge 105430
scalar OsgEarthNet.uav[13] utilizationSecIdle 125324.00281036
scalar OsgEarthNet.uav[13] utilizationEnergyMission 87544.577152252
scalar OsgEarthNet.uav[13] utilizationEnergyMaintenance 48821.374824524
scalar OsgEarthNet.uav[13] utilizationEnergyCharge 135751.8671875
scalar OsgEarthNet.uav[13] utilizationEnergyOverdrawMission 0
scalar OsgEarthNet.uav[13] utilizationEnergyOverdrawMaintenance 0
scalar OsgEarthNet.uav[13] utilizationCountMissions 30
scalar OsgEarthNet.uav[13] utilizationCountManeuversMission 522
scalar OsgEarthNet.uav[13] utilizationCountManeuversMaintenance 60
scalar OsgEarthNet.uav[13] utilizationCountChargeState 30
scalar OsgEarthNet.uav[13] utilizationCountOverdrawnAfterMission 0
scalar OsgEarthNet.uav[13] utilizationCountIdleState 31
scalar OsgEarthNet.uav[13] utilizationFail 0
scalar OsgEarthNet.uav[13] simulationTime 259200
scalar OsgEarthNet.uav[14] utilizationSecMission 14627.852953493
scalar OsgEarthNet.uav[14] utilizationSecMaintenance 10213.877064341
scalar OsgEarthNet.uav[14] utilizationSecCharge 94756.263982166
scalar OsgEarthNet.uav[14] utilizationSecIdle 139602.005
scalar OsgEarthNet.uav[14] utilizationEnergyMission 71348.264289856
scalar OsgEarthNet.uav[14] utilizationEnergyMaintenance 48513.507484436
scalar OsgEarthNet.uav[14] utilizationEnergyCharge 118397.75
scalar OsgEarthNet.uav[14] utilizationEnergyOverdrawMission 0
scalar OsgEarthNet.uav[14] utilizationEnergyOverdrawMaintenance 0
scalar OsgEarthNet.uav[14] utilizationCountMissions 30
scalar OsgEarthNet.uav[14] utilizationCountManeuversMission 515
scalar OsgEarthNet.uav[14] utilizationCountManeuversMaintenance 60
scalar OsgEarthNet.uav[14] utilizationCountChargeState 30
scalar OsgEarthNet.uav[14] utilizationCountOverdrawnAfterMission 0
scalar OsgEarthNet.uav[14] utilizationCountIdleState 30
scalar OsgEarthNet.uav[14] utilizationFail 0
scalar OsgEarthNet.uav[14] simulationTime 259200
scalar OsgEarthNet.uav[15] utilizationSecMission 42614.287824902
scalar OsgEarthNet.uav[15] utilizationSecMaintenance 18472.392177732
scalar OsgEarthNet.uav[15] utilizationSecCharge 196503.89365007
scalar OsgEarthNet.uav[15] utilizationSecIdle 1609.4253472904
scalar OsgEarthNet.uav[15] utilizationEnergyMission 206989.54011154
scalar OsgEarthNet.uav[15] utilizationEnergyMaintenance 85143.794128418
scalar OsgEarthNet.uav[15] utilizationEnergyCharge 291675.48461914
scalar OsgEarthNet.uav[15] utilizationEnergyOverdrawMission 0
scalar OsgEarthNet.uav[15] utilizationEnergyOverdrawMaintenance 0
scalar OsgEarthNet.uav[15] utilizationCountMissions 64
scalar OsgEarthNet.uav[15] utilizationCountManeuversMission 1338
scalar OsgEarthNet.uav[15] utilizationCountManeuversMaintenance 128
scalar OsgEarthNet.uav[15] utilizationCountChargeState 64
scalar OsgEarthNet.uav[15] utilizationCountOverdrawnAfterMission 0
scalar OsgEarthNet.uav[15] utilizationCountIdleState 3
scalar OsgEarthNet.uav[15] utilizationFail 0
scalar OsgEarthNet.uav[15] simulationTime 259200
scalar OsgEarthNet.uav[16] utilizationSecMission 43872.675754939
scalar OsgEarthNet.uav[16] utilizationSecMaintenance 16746.373989396
scalar OsgEarthNet.uav[16] utilizationSecCharge 195360
scalar OsgEarthNet.uav[16] utilizationSecIdle 3220.9492556647
scalar OsgEarthNet.uav[16] utilizationEnergyMission 209191.01287842
scalar OsgEarthNet.uav[16] utilizationEnergyMaintenance 77297.461128235
scalar OsgEarthNet.uav[16] utilizationEnergyCharge 285429.90087891
scalar OsgEarthNet.uav[16] utilizationEnergyOverdrawMission 0
scalar OsgEarthNet.uav[16] utilizationEnergyOverdrawMaintenance 0
scalar OsgEarthNet.uav[16] utilizationCountMissions 62
scalar OsgEarthNet.uav[16] utilizationCountManeuversMission 1211
scalar OsgEarthNet.uav[16] utilizationCountManeuversMaintenance 125
scalar OsgEarthNet.uav[16] utilizationCountChargeState 62
scalar OsgEarthNet.uav[16] utilizationCountOverdrawnAfterMission 0
scalar OsgEarthNet.uav[16] utilizationCountIdleState 1
scalar OsgEarthNet.uav[16] utilizationFail 0
scalar OsgEarthNet.uav[16] simulationTime 259200
scalar OsgEarthNet.uav[17] utilizationSecMission 17415.787577769
scalar OsgEarthNet.uav[17] utilizationSecMaintenance 11102.205422231
scalar OsgEarthNet.uav[17] utilizationSecCharge 109790
scalar OsgEarthNet.uav[17] utilizationSecIdle 120892.006
scalar OsgEarthNet.uav[17] utilizationEnergyMission 86331.856853485
scalar OsgEarthNet.uav[17] utilizationEnergyMaintenance 52501.90801511
scalar OsgEarthNet.uav[17] utilizationEnergyCharge 138530.78027344
scalar OsgEarthNet.uav[17] utilizationEnergyOverdrawMission 0
scalar OsgEarthNet.uav[17] utilizationEnergyOverdrawMaintenance 0
scalar OsgEarthNet.uav[17] utilizationCountMissions 33
scalar OsgEarthNet.uav[17] utilizationCountManeuversMission 559
scalar OsgEarthNet.uav[17] utilizationCountManeuversMaintenance 67
scalar OsgEarthNet.uav[17] utilizationCountChargeState 33
scalar OsgEarthNet.uav[17] utilizationCountOverdrawnAfterMission 0
scalar OsgEarthNet.uav[17] utilizationCountIdleState 34
scalar OsgEarthNet.uav[17] utilizationFail 0
scalar OsgEarthNet.uav[17] simulationTime 259200
scalar OsgEarthNet.uav[18] utilizationSecMission 43335.959877931
scalar OsgEarthNet.uav[18] utilizationSecMaintenance 18383.522204617
scalar OsgEarthNet.uav[18] utilizationSecCharge 195080.88583679
scalar OsgEarthNet.uav[18] utilizationSecIdle 2399.6310806652
scalar OsgEarthNet.uav[18] utilizationEnergyMission 208498.3849678
scalar OsgEarthNet.uav[18] utilizationEnergyMaintenance 84989.460639954
scalar OsgEarthNet.uav[18] utilizationEnergyCharge 287316.83337402
scalar OsgEarthNet.uav[18] utilizationEnergyOverdrawMission 0
scalar OsgEarthNet.uav[18] utilizationEnergyOverdrawMaintenance 0
scalar OsgEarthNet.uav[18] utilizationCountMissions 64
scalar OsgEarthNet.uav[18] utilizationCountManeuversMission 1278
scalar OsgEarthNet.uav[18] utilizationCountManeuversMaintenance 128
scalar OsgEarthNet.uav[18] utilizationCountChargeState 64
scalar OsgEarthNet.uav[18] utilizationCountOverdrawnAfterMission 0
scalar OsgEarthNet.uav[18] utilizationCountIdleState 4
scalar OsgEarthNet.uav[18] utilizationFail 0
scalar OsgEarthNet.uav[18] simulationTime 259200
scalar OsgEarthNet.uav[19] utilizationSecMission 11813.492876731
scalar OsgEarthNet.uav[19] utilizationSecMaintenance 8350.8154635886
scalar OsgEarthNet.uav[19] utilizationSecCharge 76580
scalar OsgEarthNet.uav[19] utilizationSecIdle 162455.69065968
scalar OsgEarthNet.uav[19] utilizationEnergyMission 59538.240657806
scalar OsgEarthNet.uav[19] utilizationEnergyMaintenance 39674.805488586
scalar OsgEarthNet.uav[19] utilizationEnergyCharge 98431.5546875
scalar OsgEarthNet.uav[19] utilizationEnergyOverdrawMission 0
scalar OsgEarthNet.uav[19] utilizationEnergyOverdrawMaintenance 0
scalar OsgEarthNet.uav[19] utilizationCountMissions 22
scalar OsgEarthNet.uav[19] utilizationCountManeuversMission 439
scalar OsgEarthNet.uav[19] utilizationCountManeuversMaintenance 44
scalar OsgEarthNet.uav[19] utilizationCountChargeState 22
scalar OsgEarthNet.uav[19] utilizationCountOverdrawnAfterMission 0
scalar OsgEarthNet.uav[19] utilizationCountIdleState 23
scalar OsgEarthNet.uav[19] utilizationFail 0
scalar OsgEarthNet.uav[19] simulationTime 259200
scalar OsgEarthNet.uav[20] utilizationSecMission 19450.391912665
scalar OsgEarthNet.uav[20] utilizationSecMaintenance 11897.65721171
scalar OsgEarthNet.uav[20] utilizationSecCharge 116850
scalar OsgEarthNet.uav[20] utilizationSecIdle 111001.94987562
scalar OsgEarthNet.uav[20] utilizationEnergyMission 93083.464618683
scalar OsgEarthNet.uav[20] utilizationEnergyMaintenance 56416.639873504
scalar OsgEarthNet.uav[20] utilizationEnergyCharge 151204.53759766
scalar OsgEarthNet.uav[20] utilizationEnergyOverdrawMission 0
scalar OsgEarthNet.uav[20] utilizationEnergyOverdrawMaintenance 0
scalar OsgEarthNet.uav[20] utilizationCountMissions 33
scalar OsgEarthNet.uav[20] utilizationCountManeuversMission 627
scalar OsgEarthNet.uav[20] utilizationCountManeuversMaintenance 65
scalar OsgEarthNet.uav[20] utilizationCountChargeState 33
scalar OsgEarthNet.uav[20] utilizationCountOverdrawnAfterMission 0
scalar OsgEarthNet.uav[20] utilizationCountIdleState 34
scalar OsgEarthNet.uav[20] utilizationFail 0
scalar OsgEarthNet.uav[20] simulationTime 259200
scalar OsgEarthNet.uav[21] utilizationSecMission 20181.668819839
scalar OsgEarthNet.uav[21] utilizationSecMaintenance 15355.96625041
scalar OsgEarthNet.uav[21] utilizationSecCharge 139090.36292975
scalar OsgEarthNet.uav[21] utilizationSecIdle 84572.001
scalar OsgEarthNet.uav[21] utilizationEnergyMission 98708.556243896
scalar OsgEarthNet.uav[21] utilizationEnergyMaintenance 73295.132534027
scalar OsgEarthNet.uav[21] utilizationEnergyCharge 171238.92822266
scalar OsgEarthNet.uav[21] utilizationEnergyOverdrawMission 0
scalar OsgEarthNet.uav[21] utilizationEnergyOverdrawMaintenance 0
scalar OsgEarthNet.uav[21] utilizationCountMissions 45
scalar OsgEarthNet.uav[21] utilizationCountManeuversMission 739
scalar OsgEarthNet.uav[21] utilizationCountManeuversMaintenance 90
scalar OsgEarthNet.uav[21] utilizationCountChargeState 45
scalar OsgEarthNet.uav[21] utilizationCountOverdrawnAfterMission 0
scalar OsgEarthNet.uav[21] utilizationCountIdleState 45
scalar OsgEarthNet.uav[21] utilizationFail 0
scalar OsgEarthNet.uav[21] simulationTime 259200
scalar OsgEarthNet.uav[22] utilizationSecMission 43263.938149354
scalar OsgEarthNet.uav[22] utilizationSecMaintenance 17965.270372271
scalar OsgEarthNet.uav[22] utilizationSecCharge 196208.78747837
scalar OsgEarthNet.uav[22] utilizationSecIdle 1762.003
scalar OsgEarthNet.uav[22] utilizationEnergyMission 208403.37125015
scalar OsgEarthNet.uav[22] utilizationEnergyMaintenance 83019.924854279
scalar OsgEarthNet.uav[22] utilizationEnergyCharge 288240.12231445
scalar OsgEarthNet.uav[22] utilizationEnergyOverdrawMission 0
scalar OsgEarthNet.uav[22] utilizationEnergyOverdrawMaintenance 0
scalar OsgEarthNet.uav[22] utilizationCountMissions 63
scalar OsgEarthNet.uav[22] utilizationCountManeuversMission 1225
scalar OsgEarthNet.uav[22] utilizationCountManeuversMaintenance 126
scalar OsgEarthNet.uav[22] utilizationCountChargeState 63
scalar OsgEarthNet.uav[22] utilizationCountOverdrawnAfterMission 0
scalar OsgEarthNet.uav[22] utilizationCountIdleState 3
scalar OsgEarthNet.uav[22] utilizationFail 0
scalar OsgEarthNet.uav[22] simulationTime 259200
scalar OsgEarthNet.uav[23] utilizationSecMission 17768.20520976
scalar OsgEarthNet.uav[23] utilizationSecMaintenance 10789.79279024
scalar OsgEarthNet.uav[23] utilizationSecCharge 104960
scalar OsgEarthNet.uav[23] utilizationSecIdle 125682.001
scalar OsgEarthNet.uav[23] utilizationEnergyMission 84913.470343131
scalar OsgEarthNet.uav[23] utilizationEnergyMaintenance 51493.693336487
scalar OsgEarthNet.uav[23] utilizationEnergyCharge 135153.4921875
scalar OsgEarthNet.uav[23] utilizationEnergyOverdrawMission 0
scalar OsgEarthNet.uav[23] utilizationEnergyOverdrawMaintenance 0
scalar OsgEarthNet.uav[23] utilizationCountMissions 30
scalar OsgEarthNet.uav[23] utilizationCountManeuversMission 567
scalar OsgEarthNet.uav[23] utilizationCountManeuversMaintenance 61
scalar OsgEarthNet.uav[23] utilizationCountChargeState 30
scalar OsgEarthNet.uav[23] utilizationCountOverdrawnAfterMission 0
scalar OsgEarthNet.uav[23] utilizationCountIdleState 31
scalar OsgEarthNet.uav[23] utilizationFail 0
scalar OsgEarthNet.uav[23] simulationTime 259200
scalar OsgEarthNet.uav[24] utilizationSecMission 19685.766446674
scalar OsgEarthNet.uav[24] utilizationSecMaintenance 13017.860183024
scalar OsgEarthNet.uav[24] utilizationSecCharge 127100
scalar OsgEarthNet.uav[24] utilizationSecIdle 99396.372370302
scalar OsgEarthNet.uav[24] utilizationEnergyMission 95997.972825761
scalar OsgEarthNet.uav[24] utilizationEnergyMaintenance 62096.265972137
scalar OsgEarthNet.uav[24] utilizationEnergyCharge 156721.2878418
scalar OsgEarthNet.uav[24] utilizationEnergyOverdrawMission 0
scalar OsgEarthNet.uav[24] utilizationEnergyOverdrawMaintenance 0
scalar OsgEarthNet.uav[24] utilizationCountMissions 40
scalar OsgEarthNet.uav[24] utilizationCountManeuversMission 561
scalar OsgEarthNet.uav[24] utilizationCountManeuversMaintenance 81
scalar OsgEarthNet.uav[24] utilizationCountChargeState 40
scalar OsgEarthNet.uav[24] utilizationCountOverdrawnAfterMission 0
scalar OsgEarthNet.uav[24] utilizationCountIdleState 41
scalar OsgEarthNet.uav[24] utilizationFail 0
scalar OsgEarthNet.uav[24] simulationTime 259200
scalar OsgEarthNet.uav[25] utilizationSecMission 44501.4702281
scalar OsgEarthNet.uav[25] utilizationSecMaintenance 16941.710049098
scalar OsgEarthNet.uav[25] utilizationSecCharge 196892.32078163
scalar OsgEarthNet.uav[25] utilizationSecIdle 864.49794117561
scalar OsgEarthNet.uav[25] utilizationEnergyMission 214339.11560822
scalar OsgEarthNet.uav[25] utilizationEnergyMaintenance 76497.689483643
scalar OsgEarthNet.uav[25] utilizationEnergyCharge 287266.59008789
scalar OsgEarthNet.uav[25] utilizationEnergyOverdrawMission 0
scalar OsgEarthNet.uav[25] utilizationEnergyOverdrawMaintenance 0
scalar OsgEarthNet.uav[25] utilizationCountMissions 63
scalar OsgEarthNet.uav[25] utilizationCountManeuversMission 1182
scalar OsgEarthNet.uav[25] utilizationCountManeuversMaintenance 126
scalar OsgEarthNet.uav[25] utilizationCountChargeState 63
scalar OsgEarthNet.uav[25] utilizationCountOverdrawnAfterMission 0
scalar OsgEarthNet.uav[25] utilizationCountIdleState 2
scalar OsgEarthNet.uav[25] utilizationFail 0
scalar OsgEarthNet.uav[25] simulationTime 259200
scalar OsgEarthNet.uav[26] utilizationSecMission 18637.243792213
scalar OsgEarthNet.uav[26] utilizationSecMaintenance 12146.560646531
scalar OsgEarthNet.uav[26] utilizationSecCharge 114624.18056126
scalar OsgEarthNet.uav[26] utilizationSecIdle 113792.014
scalar OsgEarthNet.uav[26] utilizationEnergyMission 90383.451763153
scalar OsgEarthNet.uav[26] utilizationEnergyMaintenance 57820.077033996
scalar OsgEarthNet.uav[26] utilizationEnergyCharge 147980.67138672
scalar OsgEarthNet.uav[26] utilizationEnergyOverdrawMission 0
scalar OsgEarthNet.uav[26] utilizationEnergyOverdrawMaintenance 0
scalar OsgEarthNet.uav[26] utilizationCountMissions 33
scalar OsgEarthNet.uav[26] utilizationCountManeuversMission 624
scalar OsgEarthNet.uav[26] utilizationCountManeuversMaintenance 66
scalar OsgEarthNet.uav[26] utilizationCountChargeState 33
scalar OsgEarthNet.uav[26] utilizationCountOverdrawnAfterMission 0
scalar OsgEarthNet.uav[26] utilizationCountIdleState 33
scalar OsgEarthNet.uav[26] utilizationFail 0
scalar OsgEarthNet.uav[26] simulationTime 259200
scalar OsgEarthNet.uav[27] utilizationSecMission 24739.132947975
scalar OsgEarthNet.uav[27] utilizationSecMaintenance 16898.866052025
scalar OsgEarthNet.uav[27] utilizationSecCharge 158690
scalar OsgEarthNet.uav[27] utilizationSecIdle 58872
scalar OsgEarthNet.uav[27] utilizationEnergyMission 123133.4168663
scalar OsgEarthNet.uav[27] utilizationEnergyMaintenance 80000.170546667
scalar OsgEarthNet.uav[27] utilizationEnergyCharge 197505.65722656
scalar OsgEarthNet.uav[27] utilizationEnergyOverdrawMission 0
scalar OsgEarthNet.uav[27] utilizationEnergyOverdrawMaintenance 0
scalar OsgEarthNet.uav[27] utilizationCountMissions 50
scalar OsgEarthNet.uav[27] utilizationCountManeuversMission 854
scalar OsgEarthNet.uav[27] utilizationCountManeuversMaintenance 99
scalar OsgEarthNet.uav[27] utilizationCountChargeState 49
scalar OsgEarthNet.uav[27] utilizationCountOverdrawnAfterMission 0
scalar OsgEarthNet.uav[27] utilizationCountIdleState 50
scalar OsgEarthNet.uav[27] utilizationFail 0
scalar OsgEarthNet.uav[27] simulationTime 259200
scalar OsgEarthNet.uav[28] utilizationSecMission 43209.382748765
scalar OsgEarthNet.uav[28] utilizationSecMaintenance 17501.389578518
scalar OsgEarthNet.uav[28] utilizationSecCharge 196667.82818833
scalar OsgEarthNet.uav[28] utilizationSecIdle 1821.3984843856
scalar OsgEarthNet.uav[28] utilizationEnergyMission 206815.17465973
scalar OsgEarthNet.uav[28] utilizationEnergyMaintenance 79407.196685791
scalar OsgEarthNet.uav[28] utilizationEnergyCharge 287993.00732422
scalar OsgEarthNet.uav[28] utilizationEnergyOverdrawMission 0
scalar OsgEarthNet.uav[28] utilizationEnergyOverdrawMaintenance 0
scalar OsgEarthNet.uav[28] utilizationCountMissions 63
scalar OsgEarthNet.uav[28] utilizationCountManeuversMission 1168
scalar OsgEarthNet.uav[28] utilizationCountManeuversMaintenance 126
scalar OsgEarthNet.uav[28] utilizationCountChargeState 63
scalar OsgEarthNet.uav[28] utilizationCountOverdrawnAfterMission 0
scalar OsgEarthNet.uav[28] utilizationCountIdleState 3
scalar OsgEarthNet.uav[28] utilizationFail 0
scalar OsgEarthNet.uav[28] simulationTime 259200
scalar OsgEarthNet.uav[29] utilizationSecMission 19139.716251263
scalar OsgEarthNet.uav[29] utilizationSecMaintenance 10538.273748737
scalar OsgEarthNet.uav[29] utilizationSecCharge 109270
scalar OsgEarthNet.uav[29] utilizationSecIdle 120252.009
scalar OsgEarthNet.uav[29] utilizationEnergyMission 93067.610249762
scalar OsgEarthNet.uav[29] utilizationEnergyMaintenance 49971.375232696
scalar OsgEarthNet.uav[29] utilizationEnergyCharge 141104.08740234
scalar OsgEarthNet.uav[29] utilizationEnergyOverdrawMission 0
scalar OsgEarthNet.uav[29] utilizationEnergyOverdrawMaintenance 0
scalar OsgEarthNet.uav[29] utilizationCountMissions 31
scalar OsgEarthNet.uav[29] utilizationCountManeuversMission 563
scalar OsgEarthNet.uav[29] utilizationCountManeuversMaintenance 63
scalar OsgEarthNet.uav[29] utilizationCountChargeState 31
scalar OsgEarthNet.uav[29] utilizationCountOverdrawnAfterMission 0
scalar OsgEarthNet.uav[29] utilizationCountIdleState 32
scalar OsgEarthNet.uav[29] utilizationFail 0
scalar OsgEarthNet.uav[29] simulationTime 259200
scalar OsgEarthNet.uav[30] utilizationSecMission 16446.251525803
scalar OsgEarthNet.uav[30] utilizationSecMaintenance 10956.987478947
scalar OsgEarthNet.uav[30] utilizationSecCharge 102800
scalar OsgEarthNet.uav[30] utilizationSecIdle 128996.75999525
scalar OsgEarthNet.uav[30] utilizationEnergyMission 80286.11713028
scalar OsgEarthNet.uav[30] utilizationEnergyMaintenance 51966.488430023
scalar OsgEarthNet.uav[30] utilizationEnergyCharge 133064.84326172
scalar OsgEarthNet.uav[30] utilizationEnergyOverdrawMission 0
scalar OsgEarthNet.uav[30] utilizationEnergyOverdrawMaintenance 0
scalar OsgEarthNet.uav[30] utilizationCountMissions 29
scalar OsgEarthNet.uav[30] utilizationCountManeuversMission 562
scalar OsgEarthNet.uav[30] utilizationCountManeuversMaintenance 58
scalar OsgEarthNet.uav[30] utilizationCountChargeState 29
scalar OsgEarthNet.uav[30] utilizationCountOverdrawnAfterMission 0
scalar OsgEarthNet.uav[30] utilizationCountIdleState 30
scalar OsgEarthNet.uav[30] utilizationFail 0
scalar OsgEarthNet.uav[30] simulationTime 259200
scalar OsgEarthNet.uav[31] utilizationSecMission 41920.100027914
scalar OsgEarthNet.uav[31] utilizationSecMaintenance 19164.030174019
scalar OsgEarthNet.uav[31] utilizationSecCharge 194860.42570938
scalar OsgEarthNet.uav[31] utilizationSecIdle 3255.4430886909
scalar OsgEarthNet.uav[31] utilizationEnergyMission 204958.01852417
scalar OsgEarthNet.uav[31] utilizationEnergyMaintenance 88763.12600708
scalar OsgEarthNet.uav[31] utilizationEnergyCharge 290564.97167969
scalar OsgEarthNet.uav[31] utilizationEnergyOverdrawMission 0
scalar OsgEarthNet.uav[31] utilizationEnergyOverdrawMaintenance 0
scalar OsgEarthNet.uav[31] utilizationCountMissions 64
scalar OsgEarthNet.uav[31] utilizationCountManeuversMission 1359
scalar OsgEarthNet.uav[31] utilizationCountManeuversMaintenance 128
scalar OsgEarthNet.uav[31] utilizationCountChargeState 64
scalar OsgEarthNet.uav[31] utilizationCountOverdrawnAfterMission 0
scalar OsgEarthNet.uav[31] utilizationCountIdleState 3
scalar OsgEarthNet.uav[31] utilizationFail 0
scalar OsgEarthNet.uav[31] simulationTime 259200
scalar OsgEarthNet.uav[32] utilizationSecMission 43591.019616736
scalar OsgEarthNet.uav[32] utilizationSecMaintenance 17708.027697846
scalar OsgEarthNet.uav[32] utilizationSecCharge 197698.95168542
scalar OsgEarthNet.uav[32] utilizationSecIdle 202
scalar OsgEarthNet.uav[32] utilizationEnergyMission 212045.33209102
scalar OsgEarthNet.uav[32] utilizationEnergyMaintenance 81589.137390137
scalar OsgEarthNet.uav[32] utilizationEnergyCharge 291977.99169922
scalar OsgEarthNet.uav[32] utilizationEnergyOverdrawMission 0
scalar OsgEarthNet.uav[32] utilizationEnergyOverdrawMaintenance 0
scalar OsgEarthNet.uav[32] utilizationCountMissions 64
scalar OsgEarthNet.uav[32] utilizationCountManeuversMission 1399
scalar OsgEarthNet.uav[32] utilizationCountManeuversMaintenance 127
scalar OsgEarthNet.uav[32] utilizationCountChargeState 64
scalar OsgEarthNet.uav[32] utilizationCountOverdrawnAfterMission 0
scalar OsgEarthNet.uav[32] utilizationCountIdleState 5
scalar OsgEarthNet.uav[32] utilizationFail 0
scalar OsgEarthNet.uav[32] simulationTime 259200
scalar OsgEarthNet.uav[33] utilizationSecMission 19417.243792213
scalar OsgEarthNet.uav[33] utilizationSecMaintenance 12543.992373381
scalar OsgEarthNet.uav[33] utilizationSecCharge 116656.75683441
scalar OsgEarthNet.uav[33] utilizationSecIdle 110582.006
scalar OsgEarthNet.uav[33] utilizationEnergyMission 95300.05966568
scalar OsgEarthNet.uav[33] utilizationEnergyMaintenance 59375.51839447
scalar OsgEarthNet.uav[33] utilizationEnergyCharge 150757.34765625
scalar OsgEarthNet.uav[33] utilizationEnergyOverdrawMission 0
scalar OsgEarthNet.uav[33] utilizationEnergyOverdrawMaintenance 0
scalar OsgEarthNet.uav[33] utilizationCountMissions 34
scalar OsgEarthNet.uav[33] utilizationCountManeuversMission 663
scalar OsgEarthNet.uav[33] utilizationCountManeuversMaintenance 68
scalar OsgEarthNet.uav[33] utilizationCountChargeState 34
scalar OsgEarthNet.uav[33] utilizationCountOverdrawnAfterMission 0
scalar OsgEarthNet.uav[33] utilizationCountIdleState 34
scalar OsgEarthNet.uav[33] utilizationFail 0
scalar OsgEarthNet.uav[33] simulationTime 259200
scalar OsgEarthNet.uav[34] utilizationSecMission 23179.149008998
scalar OsgEarthNet.uav[34] utilizationSecMaintenance 15492.794793939
scalar OsgEarthNet.uav[34] utilizationSecCharge 148724.38701907
scalar OsgEarthNet.uav[34] utilizationSecIdle 71803.668177988
scalar OsgEarthNet.uav[34] utilizationEnergyMission 112609.21099854
scalar OsgEarthNet.uav[34] utilizationEnergyMaintenance 73861.952423096
scalar OsgEarthNet.uav[34] utilizationEnergyCharge 186769.64990234
scalar OsgEarthNet.uav[34] utilizationEnergyOverdrawMission 0
scalar OsgEarthNet.uav[34] utilizationEnergyOverdrawMaintenance 0
scalar OsgEarthNet.uav[34] utilizationCountMissions 46
scalar OsgEarthNet.uav[34] utilizationCountManeuversMission 779
scalar OsgEarthNet.uav[34] utilizationCountManeuversMaintenance 92
scalar OsgEarthNet.uav[34] utilizationCountChargeState 46
scalar OsgEarthNet.uav[34] utilizationCountOverdrawnAfterMission 0
scalar OsgEarthNet.uav[34] utilizationCountIdleState 46
scalar OsgEarthNet.uav[34] utilizationFail 0
scalar OsgEarthNet.uav[34] simulationTime 259200
scalar OsgEarthNet.uav[35] utilizationSecMission 42494.635383189
scalar OsgEarthNet.uav[35] utilizationSecMaintenance 19183.895835644
scalar OsgEarthNet.uav[35] utilizationSecCharge 196782.24816725
scalar OsgEarthNet.uav[35] utilizationSecIdle 739.21961391566
scalar OsgEarthNet.uav[35] utilizationEnergyMission 202867.26044464
scalar OsgEarthNet.uav[35] utilizationEnergyMaintenance 88894.700527191
scalar OsgEarthNet.uav[35] utilizationEnergyCharge 291259.0423584
scalar OsgEarthNet.uav[35] utilizationEnergyOverdrawMission 0
scalar OsgEarthNet.uav[35] utilizationEnergyOverdrawMaintenance 0
scalar OsgEarthNet.uav[35] utilizationCountMissions 65
scalar OsgEarthNet.uav[35] utilizationCountManeuversMission 1299
scalar OsgEarthNet.uav[35] utilizationCountManeuversMaintenance 130
scalar OsgEarthNet.uav[35] utilizationCountChargeState 65
scalar OsgEarthNet.uav[35] utilizationCountOverdrawnAfterMission 0
scalar OsgEarthNet.uav[35] utilizationCountIdleState 3
scalar OsgEarthNet.uav[35] utilizationFail 0
scalar OsgEarthNet.uav[35] simulationTime 259200
scalar OsgEarthNet.uav[36] utilizationSecMission 16865.517298143
scalar OsgEarthNet.uav[36] utilizationSecMaintenance 12119.423322619
scalar OsgEarthNet.uav[36] utilizationSecCharge 109750
scalar OsgEarthNet.uav[36] utilizationSecIdle 120465.05837924
scalar OsgEarthNet.uav[36] utilizationEnergyMission 83754.352565765
scalar OsgEarthNet.uav[36] utilizationEnergyMaintenance 57142.186511993
scalar OsgEarthNet.uav[36] utilizationEnergyCharge 141760.90478516
scalar OsgEarthNet.uav[36] utilizationEnergyOverdrawMission 0
scalar OsgEarthNet.uav[36] utilizationEnergyOverdrawMaintenance 0
scalar OsgEarthNet.uav[36] utilizationCountMissions 31
scalar OsgEarthNet.uav[36] utilizationCountManeuversMission 626
scalar OsgEarthNet.uav[36] utilizationCountManeuversMaintenance 62
scalar OsgEarthNet.uav[36] utilizationCountChargeState 31
scalar OsgEarthNet.uav[36] utilizationCountOverdrawnAfterMission 0
scalar OsgEarthNet.uav[36] utilizationCountIdleState 32
scalar OsgEarthNet.uav[36] utilizationFail 0
scalar OsgEarthNet.uav[36] simulationTime 259200
scalar OsgEarthNet.uav[37] utilizationSecMission 21974.369016088
scalar OsgEarthNet.uav[37] utilizationSecMaintenance 16518.703893191
scalar OsgEarthNet.uav[37] utilizationSecCharge 151865.96210505
scalar OsgEarthNet.uav[37] utilizationSecIdle 68840.963985674
scalar OsgEarthNet.uav[37] utilizationEnergyMission 108427.5149765
scalar OsgEarthNet.uav[37] utilizationEnergyMaintenance 78047.57831192
scalar OsgEarthNet.uav[37] utilizationEnergyCharge 186749.38793945
scalar OsgEarthNet.uav[37] utilizationEnergyOverdrawMission 0
scalar OsgEarthNet.uav[37] utilizationEnergyOverdrawMaintenance 0
scalar OsgEarthNet.uav[37] utilizationCountMissions 49
scalar OsgEarthNet.uav[37] utilizationCountManeuversMission 769
scalar OsgEarthNet.uav[37] utilizationCountManeuversMaintenance 98
scalar OsgEarthNet.uav[37] utilizationCountChargeState 49
scalar OsgEarthNet.uav[37] utilizationCountOverdrawnAfterMission 0
scalar OsgEarthNet.uav[37] utilizationCountIdleState 49
scalar OsgEarthNet.uav[37] utilizationFail 0
scalar OsgEarthNet.uav[37] simulationTime 259200
scalar OsgEarthNet.uav[38] utilizationSecMission 42933.518837846
scalar OsgEarthNet.uav[38] utilizationSecMaintenance 17686.643348114
scalar OsgEarthNet.uav[38] utilizationSecCharge 195520
scalar OsgEarthNet.uav[38] utilizationSecIdle 3059.83681404
scalar OsgEarthNet.uav[38] utilizationEnergyMission 204983.65706139
scalar OsgEarthNet.uav[38] utilizationEnergyMaintenance 81521.668952942
scalar OsgEarthNet.uav[38] utilizationEnergyCharge 286103.20458984
scalar OsgEarthNet.uav[38] utilizationEnergyOverdrawMission 0
scalar OsgEarthNet.uav[38] utilizationEnergyOverdrawMaintenance 0
scalar OsgEarthNet.uav[38] utilizationCountMissions 62
scalar OsgEarthNet.uav[38] utilizationCountManeuversMission 1233
scalar OsgEarthNet.uav[38] utilizationCountManeuversMaintenance 125
scalar OsgEarthNet.uav[38] utilizationCountChargeState 62
scalar OsgEarthNet.uav[38] utilizationCountOverdrawnAfterMission 0
scalar OsgEarthNet.uav[38] utilizationCountIdleState 4
scalar OsgEarthNet.uav[38] utilizationFail 0
scalar OsgEarthNet.uav[38] simulationTime 259200
scalar OsgEarthNet.uav[39] utilizationSecMission 18498.494097373
scalar OsgEarthNet.uav[39] utilizationSecMaintenance 10693.226221613
scalar OsgEarthNet.uav[39] utilizationSecCharge 108880
scalar OsgEarthNet.uav[39] utilizationSecIdle 121128.27868101
scalar OsgEarthNet.uav[39] utilizationEnergyMission 89531.748744965
scalar OsgEarthNet.uav[39] utilizationEnergyMaintenance 50802.003131866
scalar OsgEarthNet.uav[39] utilizationEnergyCharge 140237.60595703
scalar OsgEarthNet.uav[39] utilizationEnergyOverdrawMission 0
scalar OsgEarthNet.uav[39] utilizationEnergyOverdrawMaintenance 0
scalar OsgEarthNet.uav[39] utilizationCountMissions 31
scalar OsgEarthNet.uav[39] utilizationCountManeuversMission 565
scalar OsgEarthNet.uav[39] utilizationCountManeuversMaintenance 62
scalar OsgEarthNet.uav[39] utilizationCountChargeState 31
scalar OsgEarthNet.uav[39] utilizationCountOverdrawnAfterMission 0
scalar OsgEarthNet.uav[39] utilizationCountIdleState 32
scalar OsgEarthNet.uav[39] utilizationFail 0
scalar OsgEarthNet.uav[39] simulationTime 259200
scalar OsgEarthNet.uav[40] utilizationSecMission 16504.376068062
scalar OsgEarthNet.uav[40] utilizationSecMaintenance 12253.606931938
scalar OsgEarthNet.uav[40] utilizationSecCharge 105060
scalar OsgEarthNet.uav[40] utilizationSecIdle 125382.016
scalar OsgEarthNet.uav[40] utilizationEnergyMission 79937.914527893
scalar OsgEarthNet.uav[40] utilizationEnergyMaintenance 58033.621703735
scalar OsgEarthNet.uav[40] utilizationEnergyCharge 135367.21679688
scalar OsgEarthNet.uav[40] utilizationEnergyOverdrawMission 0
scalar OsgEarthNet.uav[40] utilizationEnergyOverdrawMaintenance 0
scalar OsgEarthNet.uav[40] utilizationCountMissions 31
scalar OsgEarthNet.uav[40] utilizationCountManeuversMission 643
scalar OsgEarthNet.uav[40] utilizationCountManeuversMaintenance 62
scalar OsgEarthNet.uav[40] utilizationCountChargeState 30
scalar OsgEarthNet.uav[40] utilizationCountOverdrawnAfterMission 0
scalar OsgEarthNet.uav[40] utilizationCountIdleState 31
scalar OsgEarthNet.uav[40] utilizationFail 0
scalar OsgEarthNet.uav[40] simulationTime 259200
scalar OsgEarthNet.uav[41] utilizationSecMission 23245.539942514
scalar OsgEarthNet.uav[41] utilizationSecMaintenance 15505.597735741
scalar OsgEarthNet.uav[41] utilizationSecCharge 148940
scalar OsgEarthNet.uav[41] utilizationSecIdle 71508.861321745
scalar OsgEarthNet.uav[41] utilizationEnergyMission 115261.13252258
scalar OsgEarthNet.uav[41] utilizationEnergyMaintenance 73702.456050873
scalar OsgEarthNet.uav[41] utilizationEnergyCharge 187494.80737305
scalar OsgEarthNet.uav[41] utilizationEnergyOverdrawMission 0
scalar OsgEarthNet.uav[41] utilizationEnergyOverdrawMaintenance 0
scalar OsgEarthNet.uav[41] utilizationCountMissions 45
scalar OsgEarthNet.uav[41] utilizationCountManeuversMission 813
scalar OsgEarthNet.uav[41] utilizationCountManeuversMaintenance 90
scalar OsgEarthNet.uav[41] utilizationCountChargeState 45
scalar OsgEarthNet.uav[41] utilizationCountOverdrawnAfterMission 0
scalar OsgEarthNet.uav[41] utilizationCountIdleState 46
scalar OsgEarthNet.uav[41] utilizationFail 0
scalar OsgEarthNet.uav[41] simulationTime 259200
scalar OsgEarthNet.uav[42] utilizationSecMission 43280.707741815
scalar OsgEarthNet.uav[42] utilizationSecMaintenance 18328.204632175
scalar OsgEarthNet.uav[42] utilizationSecCharge 197389.08662601
scalar OsgEarthNet.uav[42] utilizationSecIdle 202
scalar OsgEarthNet.uav[42] utilizationEnergyMission 208675.58057404
scalar OsgEarthNet.uav[42] utilizationEnergyMaintenance 84747.747665405
scalar OsgEarthNet.uav[42] utilizationEnergyCharge 291534.65136719
scalar OsgEarthNet.uav[42] utilizationEnergyOverdrawMission 0
scalar OsgEarthNet.uav[42] utilizationEnergyOverdrawMaintenance 0
scalar OsgEarthNet.uav[42] utilizationCountMissions 64
scalar OsgEarthNet.uav[42] utilizationCountManeuversMission 1312
scalar OsgEarthNet.uav[42] utilizationCountManeuversMaintenance 128
scalar OsgEarthNet.uav[42] utilizationCountChargeState 64
scalar OsgEarthNet.uav[42] utilizationCountOverdrawnAfterMission 0
scalar OsgEarthNet.uav[42] utilizationCountIdleState 4
scalar OsgEarthNet.uav[42] utilizationFail 0
scalar OsgEarthNet.uav[42] simulationTime 259200
scalar OsgEarthNet.uav[43] utilizationSecMission 41592.980279734
scalar OsgEarthNet.uav[43] utilizationSecMaintenance 19647.655412286
scalar OsgEarthNet.uav[43] utilizationSecCharge 197947.36330798
scalar OsgEarthNet.uav[43] utilizationSecIdle 12
scalar OsgEarthNet.uav[43] utilizationEnergyMission 202629.80040359
scalar OsgEarthNet.uav[43] utilizationEnergyMaintenance 90956.430431366
scalar OsgEarthNet.uav[43] utilizationEnergyCharge 292602.18994141
scalar OsgEarthNet.uav[43] utilizationEnergyOverdrawMission 0
scalar OsgEarthNet.uav[43] utilizationEnergyOverdrawMaintenance 0
scalar OsgEarthNet.uav[43] utilizationCountMissions 65
scalar OsgEarthNet.uav[43] utilizationCountManeuversMission 1336
scalar OsgEarthNet.uav[43] utilizationCountManeuversMaintenance 129
scalar OsgEarthNet.uav[43] utilizationCountChargeState 65
scalar OsgEarthNet.uav[43] utilizationCountOverdrawnAfterMission 0
scalar OsgEarthNet.uav[43] utilizationCountIdleState 2
scalar OsgEarthNet.uav[43] utilizationFail 0
scalar OsgEarthNet.uav[43] simulationTime 259200
scalar OsgEarthNet.uav[44] utilizationSecMission 23815.29230726
scalar OsgEarthNet.uav[44] utilizationSecMaintenance 15722.69969274
scalar OsgEarthNet.uav[44] utilizationSecCharge 149530
scalar OsgEarthNet.uav[44] utilizationSecIdle 70132.007
scalar OsgEarthNet.uav[44] utilizationEnergyMission 116391.51686859
scalar OsgEarthNet.uav[44] utilizationEnergyMaintenance 74638.288822901
scalar OsgEarthNet.uav[44] utilizationEnergyCharge 186697.23681641
scalar OsgEarthNet.uav[44] utilizationEnergyOverdrawMission 0
scalar OsgEarthNet.uav[44] utilizationEnergyOverdrawMaintenance 0
scalar OsgEarthNet.uav[44] utilizationCountMissions 46
scalar OsgEarthNet.uav[44] utilizationCountManeuversMission 804
scalar OsgEarthNet.uav[44] utilizationCountManeuversMaintenance 93
scalar OsgEarthNet.uav[44] utilizationCountChargeState 46
scalar OsgEarthNet.uav[44] utilizationCountOverdrawnAfterMission 0
scalar OsgEarthNet.uav[44] utilizationCountIdleState 47
scalar OsgEarthNet.uav[44] utilizationFail 0
scalar OsgEarthNet.uav[44] simulationTime 259200
scalar OsgEarthNet.uav[45] utilizationSecMission 43889.059678698
scalar OsgEarthNet.uav[45] utilizationSecMaintenance 17504.233958898
scalar OsgEarthNet.uav[45] utilizationSecCharge 195590
scalar OsgEarthNet.uav[45] utilizationSecIdle 2216.7053624037
scalar OsgEarthNet.uav[45] utilizationEnergyMission 207990.01732635
scalar OsgEarthNet.uav[45] utilizationEnergyMaintenance 80759.514706265
scalar OsgEarthNet.uav[45] utilizationEnergyCharge 286282.97753906
scalar OsgEarthNet.uav[45] utilizationEnergyOverdrawMission 0
scalar OsgEarthNet.uav[45] utilizationEnergyOverdrawMaintenance 0
scalar OsgEarthNet.uav[45] utilizationCountMissions 63
scalar OsgEarthNet.uav[45] utilizationCountManeuversMission 1151
scalar OsgEarthNet.uav[45] utilizationCountManeuversMaintenance 126
scalar OsgEarthNet.uav[45] utilizationCountChargeState 62
scalar OsgEarthNet.uav[45] utilizationCountOverdrawnAfterMission 0
scalar OsgEarthNet.uav[45] utilizationCountIdleState 2
scalar OsgEarthNet.uav[45] utilizationFail 0
scalar OsgEarthNet.uav[45] simulationTime 259200
scalar OsgEarthNet.uav[46] utilizationSecMission 16295.259259393
scalar OsgEarthNet.uav[46] utilizationSecMaintenance 11617.696211351
scalar OsgEarthNet.uav[46] utilizationSecCharge 104930
scalar OsgEarthNet.uav[46] utilizationSecIdle 126357.04352926
scalar OsgEarthNet.uav[46] utilizationEnergyMission 80101.539024353
scalar OsgEarthNet.uav[46] utilizationEnergyMaintenance 55262.474830627
scalar OsgEarthNet.uav[46] utilizationEnergyCharge 135011.48681641
scalar OsgEarthNet.uav[46] utilizationEnergyOverdrawMission 0
scalar OsgEarthNet.uav[46] utilizationEnergyOverdrawMaintenance 0
scalar OsgEarthNet.uav[46] utilizationCountMissions 30
scalar OsgEarthNet.uav[46] utilizationCountManeuversMission 602
scalar OsgEarthNet.uav[46] utilizationCountManeuversMaintenance 60
scalar OsgEarthNet.uav[46] utilizationCountChargeState 30
scalar OsgEarthNet.uav[46] utilizationCountOverdrawnAfterMission 0
scalar OsgEarthNet.uav[46] utilizationCountIdleState 31
scalar OsgEarthNet.uav[46] utilizationFail 0
scalar OsgEarthNet.uav[46] simulationTime 259200
scalar OsgEarthNet.uav[47] utilizationSecMission 21560.264679095
scalar OsgEarthNet.uav[47] utilizationSecMaintenance 15899.585469277
scalar OsgEarthNet.uav[47] utilizationSecCharge 148140
scalar OsgEarthNet.uav[47] utilizationSecIdle 73600.148851628
scalar OsgEarthNet.uav[47] utilizationEnergyMission 105463.77075195
scalar OsgEarthNet.uav[47] utilizationEnergyMaintenance 75168.602092743
scalar OsgEarthNet.uav[47] utilizationEnergyCharge 180657.85961914
scalar OsgEarthNet.uav[47] utilizationEnergyOverdrawMission 0
scalar OsgEarthNet.uav[47] utilizationEnergyOverdrawMaintenance 0
scalar OsgEarthNet.uav[47] utilizationCountMissions 48
scalar OsgEarthNet.uav[47] utilizationCountManeuversMission 704
scalar OsgEarthNet.uav[47] utilizationCountManeuversMaintenance 96
scalar OsgEarthNet.uav[47] utilizationCountChargeState 48
scalar OsgEarthNet.uav[47] utilizationCountOverdrawnAfterMission 0
scalar OsgEarthNet.uav[47] utilizationCountIdleState 49
scalar OsgEarthNet.uav[47] utilizationFail 0
scalar OsgEarthNet.uav[47] simulationTime 259200
scalar OsgEarthNet.uav[48] utilizationSecMission 42411.947192903
scalar OsgEarthNet.uav[48] utilizationSecMaintenance 19140.19417731
scalar OsgEarthNet.uav[48] utilizationSecCharge 194759.2840475
scalar OsgEarthNet.uav[48] utilizationSecIdle 2888.5735822918
scalar OsgEarthNet.uav[48] utilizationEnergyMission 203973.6852417
scalar OsgEarthNet.uav[48] utilizationEnergyMaintenance 86853.945140839
scalar OsgEarthNet.uav[48] utilizationEnergyCharge 287605.28833008
scalar OsgEarthNet.uav[48] utilizationEnergyOverdrawMission 0
scalar OsgEarthNet.uav[48] utilizationEnergyOverdrawMaintenance 0
scalar OsgEarthNet.uav[48] utilizationCountMissions 64
scalar OsgEarthNet.uav[48] utilizationCountManeuversMission 1299
scalar OsgEarthNet.uav[48] utilizationCountManeuversMaintenance 128
scalar OsgEarthNet.uav[48] utilizationCountChargeState 64
scalar OsgEarthNet.uav[48] utilizationCountOverdrawnAfterMission 0
scalar OsgEarthNet.uav[48] utilizationCountIdleState 4
scalar OsgEarthNet.uav[48] utilizationFail 0
scalar OsgEarthNet.uav[48] simulationTime 259200
scalar OsgEarthNet.uav[49] utilizationSecMission 17919.228325033
scalar OsgEarthNet.uav[49] utilizationSecMaintenance 9660.2002419107
scalar OsgEarthNet.uav[49] utilizationSecCharge 97890
scalar OsgEarthNet.uav[49] utilizationSecIdle 133730.57043306
scalar OsgEarthNet.uav[49] utilizationEnergyMission 85494.581169128
scalar OsgEarthNet.uav[49] utilizationEnergyMaintenance 45378.034073116
scalar OsgEarthNet.uav[49] utilizationEnergyCharge 126076.43847656
scalar OsgEarthNet.uav[49] utilizationEnergyOverdrawMission 0
scalar OsgEarthNet.uav[49] utilizationEnergyOverdrawMaintenance 0
scalar OsgEarthNet.uav[49] utilizationCountMissions 29
scalar OsgEarthNet.uav[49] utilizationCountManeuversMission 493
scalar OsgEarthNet.uav[49] utilizationCountManeuversMaintenance 58
scalar OsgEarthNet.uav[49] utilizationCountChargeState 28
scalar OsgEarthNet.uav[49] utilizationCountOverdrawnAfterMission 0
scalar OsgEarthNet.uav[49] utilizationCountIdleState 29
scalar OsgEarthNet.uav[49] utilizationFail 0
scalar OsgEarthNet.uav[49] simulationTime 259200
scalar OsgEarthNet.uav[50] utilizationSecMission 15524.376068062
scalar OsgEarthNet.uav[50] utilizationSecMaintenance 11195.500035065
scalar OsgEarthNet.uav[50] utilizationSecCharge 101890
scalar OsgEarthNet.uav[50] utilizationSecIdle 130590.12289687
scalar OsgEarthNet.uav[50] utilizationEnergyMission 76966.295482635
scalar OsgEarthNet.uav[50] utilizationEnergyMaintenance 53544.377101898
scalar OsgEarthNet.uav[50] utilizationEnergyCharge 130925.43701172
scalar OsgEarthNet.uav[50] utilizationEnergyOverdrawMission 0
scalar OsgEarthNet.uav[50] utilizationEnergyOverdrawMaintenance 0
scalar OsgEarthNet.uav[50] utilizationCountMissions 29
scalar OsgEarthNet.uav[50] utilizationCountManeuversMission 594
scalar OsgEarthNet.uav[50] utilizationCountManeuversMaintenance 58
scalar OsgEarthNet.uav[50] utilizationCountChargeState 29
scalar OsgEarthNet.uav[50] utilizationCountOverdrawnAfterMission 0
scalar OsgEarthNet.uav[50] utilizationCountIdleState 30
scalar OsgEarthNet.uav[50] utilizationFail 0
scalar OsgEarthNet.uav[50] simulationTime 259200
scalar OsgEarthNet.uav[51] utilizationSecMission 22523.707781108
scalar OsgEarthNet.uav[51] utilizationSecMaintenance 16062.130833606
scalar OsgEarthNet.uav[51] utilizationSecCharge 147193.10259009
scalar OsgEarthNet.uav[51] utilizationSecIdle 73421.057795193
scalar OsgEarthNet.uav[51] utilizationEnergyMission 111084.43457794
scalar OsgEarthNet.uav[51] utilizationEnergyMaintenance 76823.188751221
scalar OsgEarthNet.uav[51] utilizationEnergyCharge 182329.41278076
scalar OsgEarthNet.uav[51] utilizationEnergyOverdrawMission 0
scalar OsgEarthNet.uav[51] utilizationEnergyOverdrawMaintenance 0
scalar OsgEarthNet.uav[51] utilizationCountMissions 47
scalar OsgEarthNet.uav[51] utilizationCountManeuversMission 805
scalar OsgEarthNet.uav[51] utilizationCountManeuversMaintenance 94
scalar OsgEarthNet.uav[51] utilizationCountChargeState 47
scalar OsgEarthNet.uav[51] utilizationCountOverdrawnAfterMission 0
scalar OsgEarthNet.uav[51] utilizationCountIdleState 47
scalar OsgEarthNet.uav[51] utilizationFail 0
scalar OsgEarthNet.uav[51] simulationTime 259200
scalar OsgEarthNet.uav[52] utilizationSecMission 42246.780438802
scalar OsgEarthNet.uav[52] utilizationSecMaintenance 19043.861901537
scalar OsgEarthNet.uav[52] utilizationSecCharge 194383.60797946
scalar OsgEarthNet.uav[52] utilizationSecIdle 3525.7486801979
scalar OsgEarthNet.uav[52] utilizationEnergyMission 205716.8640976
scalar OsgEarthNet.uav[52] utilizationEnergyMaintenance 88139.491222382
scalar OsgEarthNet.uav[52] utilizationEnergyCharge 288742.42364502
scalar OsgEarthNet.uav[52] utilizationEnergyOverdrawMission 0
scalar OsgEarthNet.uav[52] utilizationEnergyOverdrawMaintenance 0
scalar OsgEarthNet.uav[52] utilizationCountMissions 64
scalar OsgEarthNet.uav[52] utilizationCountManeuversMission 1369
scalar OsgEarthNet.uav[52] utilizationCountManeuversMaintenance 128
scalar OsgEarthNet.uav[52] utilizationCountChargeState 64
scalar OsgEarthNet.uav[52] utilizationCountOverdrawnAfterMission 0
scalar OsgEarthNet.uav[52] utilizationCountIdleState 2
scalar OsgEarthNet.uav[52] utilizationFail 0
scalar OsgEarthNet.uav[52] simulationTime 259200
scalar OsgEarthNet.uav[53] utilizationSecMission 18395.368334472
scalar OsgEarthNet.uav[53] utilizationSecMaintenance 13219.361601552
scalar OsgEarthNet.uav[53] utilizationSecCharge 118420
scalar OsgEarthNet.uav[53] utilizationSecIdle 109165.26906398
scalar OsgEarthNet.uav[53] utilizationEnergyMission 90635.133964539
scalar OsgEarthNet.uav[53] utilizationEnergyMaintenance 62638.160209656
scalar OsgEarthNet.uav[53] utilizationEnergyCharge 152264.44775391
scalar OsgEarthNet.uav[53] utilizationEnergyOverdrawMission 0
scalar OsgEarthNet.uav[53] utilizationEnergyOverdrawMaintenance 0
scalar OsgEarthNet.uav[53] utilizationCountMissions 34
scalar OsgEarthNet.uav[53] utilizationCountManeuversMission 690
scalar OsgEarthNet.uav[53] utilizationCountManeuversMaintenance 68
scalar OsgEarthNet.uav[53] utilizationCountChargeState 34
scalar OsgEarthNet.uav[53] utilizationCountOverdrawnAfterMission 0
scalar OsgEarthNet.uav[53] utilizationCountIdleState 35
scalar OsgEarthNet.uav[53] utilizationFail 0
scalar OsgEarthNet.uav[53] simulationTime 259200
scalar OsgEarthNet.uav[54] utilizationSecMission 24421.601569993
scalar OsgEarthNet.uav[54] utilizationSecMaintenance 16655.107900706
scalar OsgEarthNet.uav[54] utilizationSecCharge 158201.2865293
scalar OsgEarthNet.uav[54] utilizationSecIdle 59922.003
scalar OsgEarthNet.uav[54] utilizationEnergyMission 117356.02370071
scalar OsgEarthNet.uav[54] utilizationEnergyMaintenance 78768.235782623
scalar OsgEarthNet.uav[54] utilizationEnergyCharge 195110.78198242
scalar OsgEarthNet.uav[54] utilizationEnergyOverdrawMission 0
scalar OsgEarthNet.uav[54] utilizationEnergyOverdrawMaintenance 0
scalar OsgEarthNet.uav[54] utilizationCountMissions 51
scalar OsgEarthNet.uav[54] utilizationCountManeuversMission 744
scalar OsgEarthNet.uav[54] utilizationCountManeuversMaintenance 102
scalar OsgEarthNet.uav[54] utilizationCountChargeState 51
scalar OsgEarthNet.uav[54] utilizationCountOverdrawnAfterMission 0
scalar OsgEarthNet.uav[54] utilizationCountIdleState 51
scalar OsgEarthNet.uav[54] utilizationFail 0
scalar OsgEarthNet.uav[54] simulationTime 259200
scalar OsgEarthNet.uav[55] utilizationSecMission 42543.468813991
scalar OsgEarthNet.uav[55] utilizationSecMaintenance 17800.732130151
scalar OsgEarthNet.uav[55] utilizationSecCharge 195763.79405586
scalar OsgEarthNet.uav[55] utilizationSecIdle 3092.004
scalar OsgEarthNet.uav[55] utilizationEnergyMission 206917.41607285
scalar OsgEarthNet.uav[55] utilizationEnergyMaintenance 82039.35541153
scalar OsgEarthNet.uav[55] utilizationEnergyCharge 287313.76220703
scalar OsgEarthNet.uav[55] utilizationEnergyOverdrawMission 0
scalar OsgEarthNet.uav[55] utilizationEnergyOverdrawMaintenance 0
scalar OsgEarthNet.uav[55] utilizationCountMissions 63
scalar OsgEarthNet.uav[55] utilizationCountManeuversMission 1257
scalar OsgEarthNet.uav[55] utilizationCountManeuversMaintenance 126
scalar OsgEarthNet.uav[55] utilizationCountChargeState 63
scalar OsgEarthNet.uav[55] utilizationCountOverdrawnAfterMission 0
scalar OsgEarthNet.uav[55] utilizationCountIdleState 3
scalar OsgEarthNet.uav[55] utilizationFail 0
scalar OsgEarthNet.uav[55] simulationTime 259200
scalar OsgEarthNet.uav[56] utilizationSecMission 19570.627593865
scalar OsgEarthNet.uav[56] utilizationSecMaintenance 10159.479575415
scalar OsgEarthNet.uav[56] utilizationSecCharge 107767.87383072
scalar OsgEarthNet.uav[56] utilizationSecIdle 121702.018
scalar OsgEarthNet.uav[56] utilizationEnergyMission 93530.469734192
scalar OsgEarthNet.uav[56] utilizationEnergyMaintenance 48158.703601837
scalar OsgEarthNet.uav[56] utilizationEnergyCharge 139912.00195312
scalar OsgEarthNet.uav[56] utilizationEnergyOverdrawMission 0
scalar OsgEarthNet.uav[56] utilizationEnergyOverdrawMaintenance 0
scalar OsgEarthNet.uav[56] utilizationCountMissions 31
scalar OsgEarthNet.uav[56] utilizationCountManeuversMission 536
scalar OsgEarthNet.uav[56] utilizationCountManeuversMaintenance 62
scalar OsgEarthNet.uav[56] utilizationCountChargeState 31
scalar OsgEarthNet.uav[56] utilizationCountOverdrawnAfterMission 0
scalar OsgEarthNet.uav[56] utilizationCountIdleState 31
scalar OsgEarthNet.uav[56] utilizationFail 0
scalar OsgEarthNet.uav[56] simulationTime 259200
scalar OsgEarthNet.uav[57] utilizationSecMission 23749.396644253
scalar OsgEarthNet.uav[57] utilizationSecMaintenance 16187.658228725
scalar OsgEarthNet.uav[57] utilizationSecCharge 153010
scalar OsgEarthNet.uav[57] utilizationSecIdle 66252.944127023
scalar OsgEarthNet.uav[57] utilizationEnergyMission 113919.36200333
scalar OsgEarthNet.uav[57] utilizationEnergyMaintenance 76375.447540283
scalar OsgEarthNet.uav[57] utilizationEnergyCharge 190871.26293945
scalar OsgEarthNet.uav[57] utilizationEnergyOverdrawMission 0
scalar OsgEarthNet.uav[57] utilizationEnergyOverdrawMaintenance 0
scalar OsgEarthNet.uav[57] utilizationCountMissions 47
scalar OsgEarthNet.uav[57] utilizationCountManeuversMission 845
scalar OsgEarthNet.uav[57] utilizationCountManeuversMaintenance 94
scalar OsgEarthNet.uav[57] utilizationCountChargeState 47
scalar OsgEarthNet.uav[57] utilizationCountOverdrawnAfterMission 0
scalar OsgEarthNet.uav[57] utilizationCountIdleState 48
scalar OsgEarthNet.uav[57] utilizationFail 0
scalar OsgEarthNet.uav[57] simulationTime 259200
scalar OsgEarthNet.uav[58] utilizationSecMission 42262.963463692
scalar OsgEarthNet.uav[58] utilizationSecMaintenance 18920.353210777
scalar OsgEarthNet.uav[58] utilizationSecCharge 197204.68132553
scalar OsgEarthNet.uav[58] utilizationSecIdle 812.001
scalar OsgEarthNet.uav[58] utilizationEnergyMission 203940.69372559
scalar OsgEarthNet.uav[58] utilizationEnergyMaintenance 88075.5638237
scalar OsgEarthNet.uav[58] utilizationEnergyCharge 292159.8671875
scalar OsgEarthNet.uav[58] utilizationEnergyOverdrawMission 0
scalar OsgEarthNet.uav[58] utilizationEnergyOverdrawMaintenance 0
scalar OsgEarthNet.uav[58] utilizationCountMissions 64
scalar OsgEarthNet.uav[58] utilizationCountManeuversMission 1262
scalar OsgEarthNet.uav[58] utilizationCountManeuversMaintenance 128
scalar OsgEarthNet.uav[58] utilizationCountChargeState 64
scalar OsgEarthNet.uav[58] utilizationCountOverdrawnAfterMission 0
scalar OsgEarthNet.uav[58] utilizationCountIdleState 4
scalar OsgEarthNet.uav[58] utilizationFail 0
scalar OsgEarthNet.uav[58] simulationTime 259200
scalar OsgEarthNet.uav[59] utilizationSecMission 21317.759869714
scalar OsgEarthNet.uav[59] utilizationSecMaintenance 14529.637247171
scalar OsgEarthNet.uav[59] utilizationSecCharge 134290.60188311
scalar OsgEarthNet.uav[59] utilizationSecIdle 89062
scalar OsgEarthNet.uav[59] utilizationEnergyMission 103763.24276352
scalar OsgEarthNet.uav[59] utilizationEnergyMaintenance 69308.351356506
scalar OsgEarthNet.uav[59] utilizationEnergyCharge 173594.48925781
scalar OsgEarthNet.uav[59] utilizationEnergyOverdrawMission 0
scalar OsgEarthNet.uav[59] utilizationEnergyOverdrawMaintenance 0
scalar OsgEarthNet.uav[59] utilizationCountMissions 38
scalar OsgEarthNet.uav[59] utilizationCountManeuversMission 749
scalar OsgEarthNet.uav[59] utilizationCountManeuversMaintenance 76
scalar OsgEarthNet.uav[59] utilizationCountChargeState 38
scalar OsgEarthNet.uav[59] utilizationCountOverdrawnAfterMission 0
scalar OsgEarthNet.uav[59] utilizationCountIdleState 38
scalar OsgEarthNet.uav[59] utilizationFail 0
scalar OsgEarthNet.uav[59] simulationTime 259200
scalar OsgEarthNet.uav[60] utilizationSecMission 20300.369555114
scalar OsgEarthNet.uav[60] utilizationSecMaintenance 11000.067706903
scalar OsgEarthNet.uav[60] utilizationSecCharge 113047.55073798
scalar OsgEarthNet.uav[60] utilizationSecIdle 114852.011
scalar OsgEarthNet.uav[60] utilizationEnergyMission 97814.585861206
scalar OsgEarthNet.uav[60] utilizationEnergyMaintenance 52244.498851776
scalar OsgEarthNet.uav[60] utilizationEnergyCharge 145881.05871582
scalar OsgEarthNet.uav[60] utilizationEnergyOverdrawMission 0
scalar OsgEarthNet.uav[60] utilizationEnergyOverdrawMaintenance 0
scalar OsgEarthNet.uav[60] utilizationCountMissions 33
scalar OsgEarthNet.uav[60] utilizationCountManeuversMission 577
scalar OsgEarthNet.uav[60] utilizationCountManeuversMaintenance 66
scalar OsgEarthNet.uav[60] utilizationCountChargeState 33
scalar OsgEarthNet.uav[60] utilizationCountOverdrawnAfterMission 0
scalar OsgEarthNet.uav[60] utilizationCountIdleState 33
scalar OsgEarthNet.uav[60] utilizationFail 0
scalar OsgEarthNet.uav[60] simulationTime 259200
scalar OsgEarthNet.uav[61] utilizationSecMission 23995.994377632
scalar OsgEarthNet.uav[61] utilizationSecMaintenance 16300.54802782
scalar OsgEarthNet.uav[61] utilizationSecCharge 154136.14051272
scalar OsgEarthNet.uav[61] utilizationSecIdle 64767.316081831
scalar OsgEarthNet.uav[61] utilizationEnergyMission 117401.47946548
scalar OsgEarthNet.uav[61] utilizationEnergyMaintenance 77819.246826172
scalar OsgEarthNet.uav[61] utilizationEnergyCharge 194406.51831055
scalar OsgEarthNet.uav[61] utilizationEnergyOverdrawMission 0
scalar OsgEarthNet.uav[61] utilizationEnergyOverdrawMaintenance 0
scalar OsgEarthNet.uav[61] utilizationCountMissions 47
scalar OsgEarthNet.uav[61] utilizationCountManeuversMission 865
scalar OsgEarthNet.uav[61] utilizationCountManeuversMaintenance 94
scalar OsgEarthNet.uav[61] utilizationCountChargeState 47
scalar OsgEarthNet.uav[61] utilizationCountOverdrawnAfterMission 0
scalar OsgEarthNet.uav[61] utilizationCountIdleState 47
scalar OsgEarthNet.uav[61] utilizationFail 0
scalar OsgEarthNet.uav[61] simulationTime 259200
scalar OsgEarthNet.uav[62] utilizationSecMission 42371.587448013
scalar OsgEarthNet.uav[62] utilizationSecMaintenance 19050.961287956
scalar OsgEarthNet.uav[62] utilizationSecCharge 197010
scalar OsgEarthNet.uav[62] utilizationSecIdle 767.4502640309
scalar OsgEarthNet.uav[62] utilizationEnergyMission 202839.94026402
scalar OsgEarthNet.uav[62] utilizationEnergyMaintenance 88310.347332001
scalar OsgEarthNet.uav[62] utilizationEnergyCharge 290154.47949219
scalar OsgEarthNet.uav[62] utilizationEnergyOverdrawMission 0
scalar OsgEarthNet.uav[62] utilizationEnergyOverdrawMaintenance 0
scalar OsgEarthNet.uav[62] utilizationCountMissions 64
scalar OsgEarthNet.uav[62] utilizationCountManeuversMission 1291
scalar OsgEarthNet.uav[62] utilizationCountManeuversMaintenance 129
scalar OsgEarthNet.uav[62] utilizationCountChargeState 64
scalar OsgEarthNet.uav[62] utilizationCountOverdrawnAfterMission 0
scalar OsgEarthNet.uav[62] utilizationCountIdleState 1
scalar OsgEarthNet.uav[62] utilizationFail 0
scalar OsgEarthNet.uav[62] simulationTime 259200
scalar OsgEarthNet.uav[63] utilizationSecMission 20670.518518786
scalar OsgEarthNet.uav[63] utilizationSecMaintenance 11777.20359513
scalar OsgEarthNet.uav[63] utilizationSecCharge 120360
scalar OsgEarthNet.uav[63] utilizationSecIdle 106392.27688608
scalar OsgEarthNet.uav[63] utilizationEnergyMission 98003.142665863
scalar OsgEarthNet.uav[63] utilizationEnergyMaintenance 55242.659385681
scalar OsgEarthNet.uav[63] utilizationEnergyCharge 155430.68701172
scalar OsgEarthNet.uav[63] utilizationEnergyOverdrawMission 0
scalar OsgEarthNet.uav[63] utilizationEnergyOverdrawMaintenance 0
scalar OsgEarthNet.uav[63] utilizationCountMissions 34
scalar OsgEarthNet.uav[63] utilizationCountManeuversMission 608
scalar OsgEarthNet.uav[63] utilizationCountManeuversMaintenance 68
scalar OsgEarthNet.uav[63] utilizationCountChargeState 34
scalar OsgEarthNet.uav[63] utilizationCountOverdrawnAfterMission 0
scalar OsgEarthNet.uav[63] utilizationCountIdleState 35
scalar OsgEarthNet.uav[63] utilizationFail 0
scalar OsgEarthNet.uav[63] simulationTime 259200
scalar OsgEarthNet.uav[64] utilizationSecMission 26547.497233
scalar OsgEarthNet.uav[64] utilizationSecMaintenance 17661.307489805
scalar OsgEarthNet.uav[64] utilizationSecCharge 170186.58238768
scalar OsgEarthNet.uav[64] utilizationSecIdle 44804.611889516
scalar OsgEarthNet.uav[64] utilizationEnergyMission 128128.76509094
scalar OsgEarthNet.uav[64] utilizationEnergyMaintenance 83641.984424591
scalar OsgEarthNet.uav[64] utilizationEnergyCharge 211177.64770508
scalar OsgEarthNet.uav[64] utilizationEnergyOverdrawMission 0
scalar OsgEarthNet.uav[64] utilizationEnergyOverdrawMaintenance 0
scalar OsgEarthNet.uav[64] utilizationCountMissions 54
scalar OsgEarthNet.uav[64] utilizationCountManeuversMission 806
scalar OsgEarthNet.uav[64] utilizationCountManeuversMaintenance 108
scalar OsgEarthNet.uav[64] utilizationCountChargeState 54
scalar OsgEarthNet.uav[64] utilizationCountOverdrawnAfterMission 0
scalar OsgEarthNet.uav[64] utilizationCountIdleState 54
scalar OsgEarthNet.uav[64] utilizationFail 0
scalar OsgEarthNet.uav[64] simulationTime 259200
scalar OsgEarthNet.uav[65] utilizationSecMission 41589.865372825
scalar OsgEarthNet.uav[65] utilizationSecMaintenance 19125.698892377
scalar OsgEarthNet.uav[65] utilizationSecCharge 196282.4307348
[...]
scalar OsgEarthNet.uav[66] utilizationEnergyOverdrawMaintenance 0
scalar OsgEarthNet.uav[66] utilizationCountMissions 36
scalar OsgEarthNet.uav[66] utilizationCountManeuversMission 679
scalar OsgEarthNet.uav[66] utilizationCountManeuversMaintenance 72
scalar OsgEarthNet.uav[66] utilizationCountChargeState 36
scalar OsgEarthNet.uav[66] utilizationCountOverdrawnAfterMission 0
scalar OsgEarthNet.uav[66] utilizationCountIdleState 36
scalar OsgEarthNet.uav[66] utilizationFail 0
scalar OsgEarthNet.uav[66] simulationTime 259200
scalar OsgEarthNet.uav[67] utilizationSecMission 23360.057879233
scalar OsgEarthNet.uav[67] utilizationSecMaintenance 16251.425066671
scalar OsgEarthNet.uav[67] utilizationSecCharge 152206.5070541
scalar OsgEarthNet.uav[67] utilizationSecIdle 67382.009
scalar OsgEarthNet.uav[67] utilizationEnergyMission 114179.09642792
scalar OsgEarthNet.uav[67] utilizationEnergyMaintenance 77270.145355225
scalar OsgEarthNet.uav[67] utilizationEnergyCharge 189345.83740234
scalar OsgEarthNet.uav[67] utilizationEnergyOverdrawMission 0
scalar OsgEarthNet.uav[67] utilizationEnergyOverdrawMaintenance 0
scalar OsgEarthNet.uav[67] utilizationCountMissions 48
scalar OsgEarthNet.uav[67] utilizationCountManeuversMission 817
scalar OsgEarthNet.uav[67] utilizationCountManeuversMaintenance 96
scalar OsgEarthNet.uav[67] utilizationCountChargeState 48
scalar OsgEarthNet.uav[67] utilizationCountOverdrawnAfterMission 0
scalar OsgEarthNet.uav[67] utilizationCountIdleState 48
scalar OsgEarthNet.uav[67] utilizationFail 0
scalar OsgEarthNet.uav[67] simulationTime 259200
scalar OsgEarthNet.uav[68] utilizationSecMission 44754.66862559
scalar OsgEarthNet.uav[68] utilizationSecMaintenance 16883.33037441
scalar OsgEarthNet.uav[68] utilizationSecCharge 197210
scalar OsgEarthNet.uav[68] utilizationSecIdle 352
scalar OsgEarthNet.uav[68] utilizationEnergyMission 217635.85347683
scalar OsgEarthNet.uav[68] utilizationEnergyMaintenance 77765.093045386
scalar OsgEarthNet.uav[68] utilizationEnergyCharge 287349.36474609
scalar OsgEarthNet.uav[68] utilizationEnergyOverdrawMission 0
scalar OsgEarthNet.uav[68] utilizationEnergyOverdrawMaintenance 0
scalar OsgEarthNet.uav[68] utilizationCountMissions 64
scalar OsgEarthNet.uav[68] utilizationCountManeuversMission 1335
scalar OsgEarthNet.uav[68] utilizationCountManeuversMaintenance 127
scalar OsgEarthNet.uav[68] utilizationCountChargeState 63
scalar OsgEarthNet.uav[68] utilizationCountOverdrawnAfterMission 0
scalar OsgEarthNet.uav[68] utilizationCountIdleState 5
scalar OsgEarthNet.uav[68] utilizationFail 0
scalar OsgEarthNet.uav[68] simulationTime 259200
scalar OsgEarthNet.uav[69] utilizationSecMission 19466.251525803
scalar OsgEarthNet.uav[69] utilizationSecMaintenance 14011.653503261
scalar OsgEarthNet.uav[69] utilizationSecCharge 126870
scalar OsgEarthNet.uav[69] utilizationSecIdle 98852.093970937
scalar OsgEarthNet.uav[69] utilizationEnergyMission 95431.564468384
scalar OsgEarthNet.uav[69] utilizationEnergyMaintenance 66995.676265716
scalar OsgEarthNet.uav[69] utilizationEnergyCharge 163810.11669922
scalar OsgEarthNet.uav[69] utilizationEnergyOverdrawMission 0
scalar OsgEarthNet.uav[69] utilizationEnergyOverdrawMaintenance 0
scalar OsgEarthNet.uav[69] utilizationCountMissions 36
scalar OsgEarthNet.uav[69] utilizationCountManeuversMission 713
scalar OsgEarthNet.uav[69] utilizationCountManeuversMaintenance 72
scalar OsgEarthNet.uav[69] utilizationCountChargeState 36
scalar OsgEarthNet.uav[69] utilizationCountOverdrawnAfterMission 0
scalar OsgEarthNet.uav[69] utilizationCountIdleState 37
scalar OsgEarthNet.uav[69] utilizationFail 0
scalar OsgEarthNet.uav[69] simulationTime 259200
scalar OsgEarthNet.uav[70] utilizationSecMission 22160.260480035
scalar OsgEarthNet.uav[70] utilizationSecMaintenance 13075.223453468
scalar OsgEarthNet.uav[70] utilizationSecCharge 130252.5030665
scalar OsgEarthNet.uav[70] utilizationSecIdle 93712.012
scalar OsgEarthNet.uav[70] utilizationEnergyMission 106858.01182938
scalar OsgEarthNet.uav[70] utilizationEnergyMaintenance 62403.684486389
scalar OsgEarthNet.uav[70] utilizationEnergyCharge 168643.54296875
scalar OsgEarthNet.uav[70] utilizationEnergyOverdrawMission 0
scalar OsgEarthNet.uav[70] utilizationEnergyOverdrawMaintenance 0
scalar OsgEarthNet.uav[70] utilizationCountMissions 37
scalar OsgEarthNet.uav[70] utilizationCountManeuversMission 687
scalar OsgEarthNet.uav[70] utilizationCountManeuversMaintenance 74
scalar OsgEarthNet.uav[70] utilizationCountChargeState 37
scalar OsgEarthNet.uav[70] utilizationCountOverdrawnAfterMission 0
scalar OsgEarthNet.uav[70] utilizationCountIdleState 37
scalar OsgEarthNet.uav[70] utilizationFail 0
scalar OsgEarthNet.uav[70] simulationTime 259200
scalar OsgEarthNet.uav[71] utilizationSecMission 23671.560734601
scalar OsgEarthNet.uav[71] utilizationSecMaintenance 16389.0884077
scalar OsgEarthNet.uav[71] utilizationSecCharge 157425.58787019
scalar OsgEarthNet.uav[71] utilizationSecIdle 61713.761987508
scalar OsgEarthNet.uav[71] utilizationEnergyMission 113633.89201736
scalar OsgEarthNet.uav[71] utilizationEnergyMaintenance 78555.65908432
scalar OsgEarthNet.uav[71] utilizationEnergyCharge 191165.01513672
scalar OsgEarthNet.uav[71] utilizationEnergyOverdrawMission 0
scalar OsgEarthNet.uav[71] utilizationEnergyOverdrawMaintenance 0
scalar OsgEarthNet.uav[71] utilizationCountMissions 52
scalar OsgEarthNet.uav[71] utilizationCountManeuversMission 646
scalar OsgEarthNet.uav[71] utilizationCountManeuversMaintenance 104
scalar OsgEarthNet.uav[71] utilizationCountChargeState 52
scalar OsgEarthNet.uav[71] utilizationCountOverdrawnAfterMission 0
scalar OsgEarthNet.uav[71] utilizationCountIdleState 52
scalar OsgEarthNet.uav[71] utilizationFail 0
scalar OsgEarthNet.uav[71] simulationTime 259200
scalar OsgEarthNet.uav[72] utilizationSecMission 42690.790016544
scalar OsgEarthNet.uav[72] utilizationSecMaintenance 19080.265043586
scalar OsgEarthNet.uav[72] utilizationSecCharge 197426.94393987
scalar OsgEarthNet.uav[72] utilizationSecIdle 2
scalar OsgEarthNet.uav[72] utilizationEnergyMission 207768.49422073
scalar OsgEarthNet.uav[72] utilizationEnergyMaintenance 88118.68983078
scalar OsgEarthNet.uav[72] utilizationEnergyCharge 291812.44873047
scalar OsgEarthNet.uav[72] utilizationEnergyOverdrawMission 0
scalar OsgEarthNet.uav[72] utilizationEnergyOverdrawMaintenance 0
scalar OsgEarthNet.uav[72] utilizationCountMissions 65
scalar OsgEarthNet.uav[72] utilizationCountManeuversMission 1375
scalar OsgEarthNet.uav[72] utilizationCountManeuversMaintenance 130
scalar OsgEarthNet.uav[72] utilizationCountChargeState 65
scalar OsgEarthNet.uav[72] utilizationCountOverdrawnAfterMission 0
scalar OsgEarthNet.uav[72] utilizationCountIdleState 1
scalar OsgEarthNet.uav[72] utilizationFail 0
scalar OsgEarthNet.uav[72] simulationTime 259200
scalar OsgEarthNet.uav[73] utilizationSecMission 17235.993487052
scalar OsgEarthNet.uav[73] utilizationSecMaintenance 11710.208288466
scalar OsgEarthNet.uav[73] utilizationSecCharge 110100
scalar OsgEarthNet.uav[73] utilizationSecIdle 120153.79722448
scalar OsgEarthNet.uav[73] utilizationEnergyMission 84872.362552643
scalar OsgEarthNet.uav[73] utilizationEnergyMaintenance 56218.258655548
scalar OsgEarthNet.uav[73] utilizationEnergyCharge 142409.9921875
scalar OsgEarthNet.uav[73] utilizationEnergyOverdrawMission 0
scalar OsgEarthNet.uav[73] utilizationEnergyOverdrawMaintenance 0
scalar OsgEarthNet.uav[73] utilizationCountMissions 31
scalar OsgEarthNet.uav[73] utilizationCountManeuversMission 606
scalar OsgEarthNet.uav[73] utilizationCountManeuversMaintenance 62
scalar OsgEarthNet.uav[73] utilizationCountChargeState 31
scalar OsgEarthNet.uav[73] utilizationCountOverdrawnAfterMission 0
scalar OsgEarthNet.uav[73] utilizationCountIdleState 32
scalar OsgEarthNet.uav[73] utilizationFail 0
scalar OsgEarthNet.uav[73] simulationTime 259200
scalar OsgEarthNet.uav[74] utilizationSecMission 24352.758075482
scalar OsgEarthNet.uav[74] utilizationSecMaintenance 17370.894306856
scalar OsgEarthNet.uav[74] utilizationSecCharge 164284.34461766
scalar OsgEarthNet.uav[74] utilizationSecIdle 53192.002
scalar OsgEarthNet.uav[74] utilizationEnergyMission 118761.55673218
scalar OsgEarthNet.uav[74] utilizationEnergyMaintenance 82905.716842651
scalar OsgEarthNet.uav[74] utilizationEnergyCharge 202898.78588867
scalar OsgEarthNet.uav[74] utilizationEnergyOverdrawMission 0
scalar OsgEarthNet.uav[74] utilizationEnergyOverdrawMaintenance 0
scalar OsgEarthNet.uav[74] utilizationCountMissions 52
scalar OsgEarthNet.uav[74] utilizationCountManeuversMission 807
scalar OsgEarthNet.uav[74] utilizationCountManeuversMaintenance 104
scalar OsgEarthNet.uav[74] utilizationCountChargeState 52
scalar OsgEarthNet.uav[74] utilizationCountOverdrawnAfterMission 0
scalar OsgEarthNet.uav[74] utilizationCountIdleState 52
scalar OsgEarthNet.uav[74] utilizationFail 0
scalar OsgEarthNet.uav[74] simulationTime 259200
scalar OsgEarthNet.uav[75] utilizationSecMission 43041.858349209
scalar OsgEarthNet.uav[75] utilizationSecMaintenance 17308.742356688
scalar OsgEarthNet.uav[75] utilizationSecCharge 196007.3932941
scalar OsgEarthNet.uav[75] utilizationSecIdle 2842.005
scalar OsgEarthNet.uav[75] utilizationEnergyMission 204503.4670105
scalar OsgEarthNet.uav[75] utilizationEnergyMaintenance 79613.585208893
scalar OsgEarthNet.uav[75] utilizationEnergyCharge 285029.78753662
scalar OsgEarthNet.uav[75] utilizationEnergyOverdrawMission 0
scalar OsgEarthNet.uav[75] utilizationEnergyOverdrawMaintenance 0
scalar OsgEarthNet.uav[75] utilizationCountMissions 63
scalar OsgEarthNet.uav[75] utilizationCountManeuversMission 1235
scalar OsgEarthNet.uav[75] utilizationCountManeuversMaintenance 126
scalar OsgEarthNet.uav[75] utilizationCountChargeState 63
scalar OsgEarthNet.uav[75] utilizationCountOverdrawnAfterMission 0
scalar OsgEarthNet.uav[75] utilizationCountIdleState 3
scalar OsgEarthNet.uav[75] utilizationFail 0
scalar OsgEarthNet.uav[75] simulationTime 259200
scalar OsgEarthNet.uav[76] utilizationSecMission 21951.143671366
scalar OsgEarthNet.uav[76] utilizationSecMaintenance 12505.188854086
scalar OsgEarthNet.uav[76] utilizationSecCharge 124511.66247455
scalar OsgEarthNet.uav[76] utilizationSecIdle 100232.004
scalar OsgEarthNet.uav[76] utilizationEnergyMission 105495.85733032
scalar OsgEarthNet.uav[76] utilizationEnergyMaintenance 59596.030502319
scalar OsgEarthNet.uav[76] utilizationEnergyCharge 161341.40557861
scalar OsgEarthNet.uav[76] utilizationEnergyOverdrawMission 0
scalar OsgEarthNet.uav[76] utilizationEnergyOverdrawMaintenance 0
scalar OsgEarthNet.uav[76] utilizationCountMissions 36
scalar OsgEarthNet.uav[76] utilizationCountManeuversMission 646
scalar OsgEarthNet.uav[76] utilizationCountManeuversMaintenance 72
scalar OsgEarthNet.uav[76] utilizationCountChargeState 36
scalar OsgEarthNet.uav[76] utilizationCountOverdrawnAfterMission 0
scalar OsgEarthNet.uav[76] utilizationCountIdleState 36
scalar OsgEarthNet.uav[76] utilizationFail 0
scalar OsgEarthNet.uav[76] simulationTime 259200
scalar OsgEarthNet.uav[77] utilizationSecMission 26790.031464778
scalar OsgEarthNet.uav[77] utilizationSecMaintenance 16649.538324445
scalar OsgEarthNet.uav[77] utilizationSecCharge 165940
scalar OsgEarthNet.uav[77] utilizationSecIdle 49820.429210777
scalar OsgEarthNet.uav[77] utilizationEnergyMission 130857.24139023
scalar OsgEarthNet.uav[77] utilizationEnergyMaintenance 78239.188694
scalar OsgEarthNet.uav[77] utilizationEnergyCharge 208906.42602539
scalar OsgEarthNet.uav[77] utilizationEnergyOverdrawMission 0
scalar OsgEarthNet.uav[77] utilizationEnergyOverdrawMaintenance 0
scalar OsgEarthNet.uav[77] utilizationCountMissions 50
scalar OsgEarthNet.uav[77] utilizationCountManeuversMission 842
scalar OsgEarthNet.uav[77] utilizationCountManeuversMaintenance 100
scalar OsgEarthNet.uav[77] utilizationCountChargeState 50
scalar OsgEarthNet.uav[77] utilizationCountOverdrawnAfterMission 0
scalar OsgEarthNet.uav[77] utilizationCountIdleState 51
scalar OsgEarthNet.uav[77] utilizationFail 0
scalar OsgEarthNet.uav[77] simulationTime 259200
scalar OsgEarthNet.uav[78] utilizationSecMission 43384.689432759
scalar OsgEarthNet.uav[78] utilizationSecMaintenance 17846.151231645
scalar OsgEarthNet.uav[78] utilizationSecCharge 197317.1573356
scalar OsgEarthNet.uav[78] utilizationSecIdle 652.001
scalar OsgEarthNet.uav[78] utilizationEnergyMission 209028.3600769
scalar OsgEarthNet.uav[78] utilizationEnergyMaintenance 83687.730529785
scalar OsgEarthNet.uav[78] utilizationEnergyCharge 290331.55957031
scalar OsgEarthNet.uav[78] utilizationEnergyOverdrawMission 0
scalar OsgEarthNet.uav[78] utilizationEnergyOverdrawMaintenance 0
scalar OsgEarthNet.uav[78] utilizationCountMissions 64
scalar OsgEarthNet.uav[78] utilizationCountManeuversMission 1221
scalar OsgEarthNet.uav[78] utilizationCountManeuversMaintenance 128
scalar OsgEarthNet.uav[78] utilizationCountChargeState 64
scalar OsgEarthNet.uav[78] utilizationCountOverdrawnAfterMission 0
scalar OsgEarthNet.uav[78] utilizationCountIdleState 3
scalar OsgEarthNet.uav[78] utilizationFail 0
scalar OsgEarthNet.uav[78] simulationTime 259200
scalar OsgEarthNet.uav[79] utilizationSecMission 44364.17240332
scalar OsgEarthNet.uav[79] utilizationSecMaintenance 17009.804985481
scalar OsgEarthNet.uav[79] utilizationSecCharge 196470
scalar OsgEarthNet.uav[79] utilizationSecIdle 1356.0216111988
scalar OsgEarthNet.uav[79] utilizationEnergyMission 211254.56036012
scalar OsgEarthNet.uav[79] utilizationEnergyMaintenance 77006.870334625
scalar OsgEarthNet.uav[79] utilizationEnergyCharge 285372.79150391
scalar OsgEarthNet.uav[79] utilizationEnergyOverdrawMission 0
scalar OsgEarthNet.uav[79] utilizationEnergyOverdrawMaintenance 0
scalar OsgEarthNet.uav[79] utilizationCountMissions 62
scalar OsgEarthNet.uav[79] utilizationCountManeuversMission 1151
scalar OsgEarthNet.uav[79] utilizationCountManeuversMaintenance 125
scalar OsgEarthNet.uav[79] utilizationCountChargeState 62
scalar OsgEarthNet.uav[79] utilizationCountOverdrawnAfterMission 0
scalar OsgEarthNet.uav[79] utilizationCountIdleState 2
scalar OsgEarthNet.uav[79] utilizationFail 0
scalar OsgEarthNet.uav[79] simulationTime 259200
scalar OsgEarthNet.uav[80] utilizationSecMission 19687.501830963
scalar OsgEarthNet.uav[80] utilizationSecMaintenance 13045.71948465
scalar OsgEarthNet.uav[80] utilizationSecCharge 121073.07647527
scalar OsgEarthNet.uav[80] utilizationSecIdle 105393.70120911
scalar OsgEarthNet.uav[80] utilizationEnergyMission 94583.851512909
scalar OsgEarthNet.uav[80] utilizationEnergyMaintenance 61939.395206451
scalar OsgEarthNet.uav[80] utilizationEnergyCharge 156508.51318359
scalar OsgEarthNet.uav[80] utilizationEnergyOverdrawMission 0
scalar OsgEarthNet.uav[80] utilizationEnergyOverdrawMaintenance 0
scalar OsgEarthNet.uav[80] utilizationCountMissions 35
scalar OsgEarthNet.uav[80] utilizationCountManeuversMission 672
scalar OsgEarthNet.uav[80] utilizationCountManeuversMaintenance 70
scalar OsgEarthNet.uav[80] utilizationCountChargeState 35
scalar OsgEarthNet.uav[80] utilizationCountOverdrawnAfterMission 0
scalar OsgEarthNet.uav[80] utilizationCountIdleState 35
scalar OsgEarthNet.uav[80] utilizationFail 0
scalar OsgEarthNet.uav[80] simulationTime 259200
scalar OsgEarthNet.uav[81] utilizationSecMission 24423.005710736
scalar OsgEarthNet.uav[81] utilizationSecMaintenance 17317.660072995
scalar OsgEarthNet.uav[81] utilizationSecCharge 160450.97961339
scalar OsgEarthNet.uav[81] utilizationSecIdle 57008.353602879
scalar OsgEarthNet.uav[81] utilizationEnergyMission 118678.75413132
scalar OsgEarthNet.uav[81] utilizationEnergyMaintenance 82230.255111694
scalar OsgEarthNet.uav[81] utilizationEnergyCharge 199030.5994873
scalar OsgEarthNet.uav[81] utilizationEnergyOverdrawMission 0
scalar OsgEarthNet.uav[81] utilizationEnergyOverdrawMaintenance 0
scalar OsgEarthNet.uav[81] utilizationCountMissions 51
scalar OsgEarthNet.uav[81] utilizationCountManeuversMission 848
scalar OsgEarthNet.uav[81] utilizationCountManeuversMaintenance 102
scalar OsgEarthNet.uav[81] utilizationCountChargeState 51
scalar OsgEarthNet.uav[81] utilizationCountOverdrawnAfterMission 0
scalar OsgEarthNet.uav[81] utilizationCountIdleState 51
scalar OsgEarthNet.uav[81] utilizationFail 0
scalar OsgEarthNet.uav[81] simulationTime 259200
scalar OsgEarthNet.uav[82] utilizationSecMission 43551.502028278
scalar OsgEarthNet.uav[82] utilizationSecMaintenance 17359.384995488
scalar OsgEarthNet.uav[82] utilizationSecCharge 196217.10897623
scalar OsgEarthNet.uav[82] utilizationSecIdle 2072.003
scalar OsgEarthNet.uav[82] utilizationEnergyMission 209126.36317444
scalar OsgEarthNet.uav[82] utilizationEnergyMaintenance 78749.815891266
scalar OsgEarthNet.uav[82] utilizationEnergyCharge 288005.63818359
scalar OsgEarthNet.uav[82] utilizationEnergyOverdrawMission 0
scalar OsgEarthNet.uav[82] utilizationEnergyOverdrawMaintenance 0
scalar OsgEarthNet.uav[82] utilizationCountMissions 63
scalar OsgEarthNet.uav[82] utilizationCountManeuversMission 1215
scalar OsgEarthNet.uav[82] utilizationCountManeuversMaintenance 126
scalar OsgEarthNet.uav[82] utilizationCountChargeState 63
scalar OsgEarthNet.uav[82] utilizationCountOverdrawnAfterMission 0
scalar OsgEarthNet.uav[82] utilizationCountIdleState 3
scalar OsgEarthNet.uav[82] utilizationFail 0
scalar OsgEarthNet.uav[82] simulationTime 259200
scalar OsgEarthNet.uav[83] utilizationSecMission 20798.494097373
scalar OsgEarthNet.uav[83] utilizationSecMaintenance 13017.732115623
scalar OsgEarthNet.uav[83] utilizationSecCharge 124371.765787
scalar OsgEarthNet.uav[83] utilizationSecIdle 101012.007
scalar OsgEarthNet.uav[83] utilizationEnergyMission 100477.2757225
scalar OsgEarthNet.uav[83] utilizationEnergyMaintenance 61066.904006958
scalar OsgEarthNet.uav[83] utilizationEnergyCharge 160743.08154297
scalar OsgEarthNet.uav[83] utilizationEnergyOverdrawMission 0
scalar OsgEarthNet.uav[83] utilizationEnergyOverdrawMaintenance 0
scalar OsgEarthNet.uav[83] utilizationCountMissions 36
scalar OsgEarthNet.uav[83] utilizationCountManeuversMission 680
scalar OsgEarthNet.uav[83] utilizationCountManeuversMaintenance 72
scalar OsgEarthNet.uav[83] utilizationCountChargeState 36
scalar OsgEarthNet.uav[83] utilizationCountOverdrawnAfterMission 0
scalar OsgEarthNet.uav[83] utilizationCountIdleState 36
scalar OsgEarthNet.uav[83] utilizationFail 0
scalar OsgEarthNet.uav[83] simulationTime 259200
scalar OsgEarthNet.uav[84] utilizationSecMission 25556.319179632
scalar OsgEarthNet.uav[84] utilizationSecMaintenance 16721.678313646
scalar OsgEarthNet.uav[84] utilizationSecCharge 161260
scalar OsgEarthNet.uav[84] utilizationSecIdle 55662.001506722
scalar OsgEarthNet.uav[84] utilizationEnergyMission 124998.14091625
scalar OsgEarthNet.uav[84] utilizationEnergyMaintenance 79589.879520416
scalar OsgEarthNet.uav[84] utilizationEnergyCharge 202318.41748047
scalar OsgEarthNet.uav[84] utilizationEnergyOverdrawMission 0
scalar OsgEarthNet.uav[84] utilizationEnergyOverdrawMaintenance 0
scalar OsgEarthNet.uav[84] utilizationCountMissions 49
scalar OsgEarthNet.uav[84] utilizationCountManeuversMission 842
scalar OsgEarthNet.uav[84] utilizationCountManeuversMaintenance 99
scalar OsgEarthNet.uav[84] utilizationCountChargeState 49
scalar OsgEarthNet.uav[84] utilizationCountOverdrawnAfterMission 0
scalar OsgEarthNet.uav[84] utilizationCountIdleState 50
scalar OsgEarthNet.uav[84] utilizationFail 0
scalar OsgEarthNet.uav[84] simulationTime 259200
scalar OsgEarthNet.cs[0] usedPower 4004461.8458394
scalar OsgEarthNet.cs[0] chargedPower 4004461.8458394
scalar OsgEarthNet.cs[0] chargedMobileNodes 876
scalar OsgEarthNet.cs[0] reservations 889
scalar OsgEarthNet.cs[1] usedPower 4152880.4291582
scalar OsgEarthNet.cs[1] chargedPower 4152880.4291582
scalar OsgEarthNet.cs[1] chargedMobileNodes 1036
scalar OsgEarthNet.cs[1] reservations 1049
scalar OsgEarthNet.cs[2] usedPower 8664236.5704858
scalar OsgEarthNet.cs[2] chargedPower 8664236.5704858
scalar OsgEarthNet.cs[2] chargedMobileNodes 61
scalar OsgEarthNet.cs[2] reservations 1909

