version 2
run Szenario_Hotel_Gabelbach-204-20180712-05:36:48-12956
attr configname Szenario_Hotel_Gabelbach
attr datetime 20180712-05:36:48
attr experiment Szenario_Hotel_Gabelbach
attr inifile omnetpp.ini
attr iterationvars "$replM=2, $biWeight=0.35, $replSearchM=1, $numUAVs=95"
attr iterationvarsf replM=2,biWeight=0.35,replSearchM=1,numUAVs=95-
attr measurement "$replM=2, $biWeight=0.35, $replSearchM=1, $numUAVs=95"
attr network OsgEarthNet
attr processid 12956
attr repetition 0
attr replication #0
attr resultdir results
attr runnumber 204
attr seedset 204
itervar biWeight 0.35
itervar numUAVs 95
itervar replM 2
itervar replSearchM 1
param *.osgEarthScene.scene "\"Szenario_Hotel_Gabelbach.earth\""
param *.playgroundLatitude 50.6830269
param *.playgroundLongitude 10.8538055
param *.playgroundWidth 3500m
param *.playgroundHeight 3500m
param *.cs[0].posX 3537m
param *.cs[0].posY 965m
param *.cs[0].posZ 538m
param *.cs[1].posX 312m
param *.cs[1].posY 1262m
param *.cs[1].posZ 539m
param *.cs[2].posX 2185m
param *.cs[2].posY 3026m
param *.cs[2].posZ 777m
param *.cs[3].posX 10m
param *.cs[3].posY 2200m
param *.cs[3].posZ 560m
param *.cs[4].posX 750m
param *.cs[4].posY 200m
param *.cs[4].posZ 540m
param *.cs[5].posX 2450m
param *.cs[5].posY 180m
param *.cs[5].posZ 524m
param *.cs[6].posX 3140m
param *.cs[6].posY 1790m
param *.cs[6].posZ 606m
param *.numCSs 3
param *.uav[*].replacementMethod 2
param *.uav[*].weightedSumWeight 0.35
param *.missionControl.replacementSearchMethod 1
param *.numUAVs 95
param *.numCSs 3
param *.numUAVs 100
param *.*.timeStep 10s
param *.uav[*].commandPreviewCommandCount 20
param *.missionControl.missionFiles "\"missions\\\\Szenario_WB_Hotel_Gabelbach_Mission_Hotel.waypoints,missions\\\\Szenario_WB_Hotel_Gabelbach_Mission_Kickelhahn.waypoints,missions\\\\Szenario_WB_Hotel_Gabelbach_Mission_Ilmenau_Sportplatz.waypoints,missions\\\\Szenario_WB_Hotel_Gabelbach_Mission_Manebach_Mitte.waypoints,missions\\\\Szenario_WB_Hotel_Gabelbach_Mission_Manebach_Sued.waypoints,missions\\\\Szenario_WB_Hotel_Gabelbach_Hover_HoheSchlaufe.waypoints,missions\\\\Szenario_WB_Hotel_Gabelbach_Hover_Kickelhahn.waypoints,missions\\\\Szenario_WB_Hotel_Gabelbach_Hover_Gabelbachskopf.waypoints,missions\\\\Szenario_WB_Hotel_Gabelbach_Hover_Dachskopf.waypoints\""
param *.uav[0].startX 3537m
param *.uav[0].startY 965m
param *.uav[0].startZ 539m
param *.uav[1].startX 312m
param *.uav[1].startY 1262m
param *.uav[1].startZ 540m
param *.uav[2].startX 2185m
param *.uav[2].startY 3026m
param *.uav[2].startZ 778m
param *.uav[3].startX 3537m
param *.uav[3].startY 965m
param *.uav[3].startZ 539m
param *.uav[4].startX 312m
param *.uav[4].startY 1262m
param *.uav[4].startZ 540m
param *.uav[5].startX 2185m
param *.uav[5].startY 3026m
param *.uav[5].startZ 778m
param *.uav[6].startX 3537m
param *.uav[6].startY 965m
param *.uav[6].startZ 539m
param *.uav[7].startX 312m
param *.uav[7].startY 1262m
param *.uav[7].startZ 540m
param *.uav[8].startX 2185m
param *.uav[8].startY 3026m
param *.uav[8].startZ 778m
param *.uav[9].startX 3537m
param *.uav[9].startY 965m
param *.uav[9].startZ 539m
param *.uav[10].startX 3537m
param *.uav[10].startY 965m
param *.uav[10].startZ 539m
param *.uav[11].startX 312m
param *.uav[11].startY 1262m
param *.uav[11].startZ 540m
param *.uav[12].startX 2185m
param *.uav[12].startY 3026m
param *.uav[12].startZ 778m
param *.uav[13].startX 3537m
param *.uav[13].startY 965m
param *.uav[13].startZ 539m
param *.uav[14].startX 312m
param *.uav[14].startY 1262m
param *.uav[14].startZ 540m
param *.uav[15].startX 2185m
param *.uav[15].startY 3026m
param *.uav[15].startZ 778m
param *.uav[16].startX 3537m
param *.uav[16].startY 965m
param *.uav[16].startZ 539m
param *.uav[17].startX 312m
param *.uav[17].startY 1262m
param *.uav[17].startZ 540m
param *.uav[18].startX 2185m
param *.uav[18].startY 3026m
param *.uav[18].startZ 778m
param *.uav[19].startX 3537m
param *.uav[19].startY 965m
param *.uav[19].startZ 539m
param *.uav[20].startX 3537m
param *.uav[20].startY 965m
param *.uav[20].startZ 539m
param *.uav[21].startX 312m
param *.uav[21].startY 1262m
param *.uav[21].startZ 540m
param *.uav[22].startX 2185m
param *.uav[22].startY 3026m
param *.uav[22].startZ 778m
param *.uav[23].startX 3537m
param *.uav[23].startY 965m
param *.uav[23].startZ 539m
param *.uav[24].startX 312m
param *.uav[24].startY 1262m
param *.uav[24].startZ 540m
param *.uav[25].startX 2185m
param *.uav[25].startY 3026m
param *.uav[25].startZ 778m
param *.uav[26].startX 3537m
param *.uav[26].startY 965m
param *.uav[26].startZ 539m
param *.uav[27].startX 312m
param *.uav[27].startY 1262m
param *.uav[27].startZ 540m
param *.uav[28].startX 2185m
param *.uav[28].startY 3026m
param *.uav[28].startZ 778m
param *.uav[29].startX 3537m
param *.uav[29].startY 965m
param *.uav[29].startZ 539m
param *.uav[30].startX 3537m
param *.uav[30].startY 965m
param *.uav[30].startZ 539m
param *.uav[31].startX 312m
param *.uav[31].startY 1262m
param *.uav[31].startZ 540m
param *.uav[32].startX 2185m
param *.uav[32].startY 3026m
param *.uav[32].startZ 778m
param *.uav[33].startX 3537m
param *.uav[33].startY 965m
param *.uav[33].startZ 539m
param *.uav[34].startX 312m
param *.uav[34].startY 1262m
param *.uav[34].startZ 540m
param *.uav[35].startX 2185m
param *.uav[35].startY 3026m
param *.uav[35].startZ 778m
param *.uav[36].startX 3537m
param *.uav[36].startY 965m
param *.uav[36].startZ 539m
param *.uav[37].startX 312m
param *.uav[37].startY 1262m
param *.uav[37].startZ 540m
param *.uav[38].startX 2185m
param *.uav[38].startY 3026m
param *.uav[38].startZ 778m
param *.uav[39].startX 3537m
param *.uav[39].startY 965m
param *.uav[39].startZ 539m
param *.uav[40].startX 3537m
param *.uav[40].startY 965m
param *.uav[40].startZ 539m
param *.uav[41].startX 312m
param *.uav[41].startY 1262m
param *.uav[41].startZ 540m
param *.uav[42].startX 2185m
param *.uav[42].startY 3026m
param *.uav[42].startZ 778m
param *.uav[43].startX 3537m
param *.uav[43].startY 965m
param *.uav[43].startZ 539m
param *.uav[44].startX 312m
param *.uav[44].startY 1262m
param *.uav[44].startZ 540m
param *.uav[45].startX 2185m
param *.uav[45].startY 3026m
param *.uav[45].startZ 778m
param *.uav[46].startX 3537m
param *.uav[46].startY 965m
param *.uav[46].startZ 539m
param *.uav[47].startX 312m
param *.uav[47].startY 1262m
param *.uav[47].startZ 540m
param *.uav[48].startX 2185m
param *.uav[48].startY 3026m
param *.uav[48].startZ 778m
param *.uav[49].startX 3537m
param *.uav[49].startY 965m
param *.uav[49].startZ 539m
param *.uav[50].startX 3537m
param *.uav[50].startY 965m
param *.uav[50].startZ 539m
param *.uav[51].startX 312m
param *.uav[51].startY 1262m
param *.uav[51].startZ 540m
param *.uav[52].startX 2185m
param *.uav[52].startY 3026m
param *.uav[52].startZ 778m
param *.uav[53].startX 3537m
param *.uav[53].startY 965m
param *.uav[53].startZ 539m
param *.uav[54].startX 312m
param *.uav[54].startY 1262m
param *.uav[54].startZ 540m
param *.uav[55].startX 2185m
param *.uav[55].startY 3026m
param *.uav[55].startZ 778m
param *.uav[56].startX 3537m
param *.uav[56].startY 965m
param *.uav[56].startZ 539m
param *.uav[57].startX 312m
param *.uav[57].startY 1262m
param *.uav[57].startZ 540m
param *.uav[58].startX 2185m
param *.uav[58].startY 3026m
param *.uav[58].startZ 778m
param *.uav[59].startX 3537m
param *.uav[59].startY 965m
param *.uav[59].startZ 539m
param *.uav[60].startX 3537m
param *.uav[60].startY 965m
param *.uav[60].startZ 539m
param *.uav[61].startX 312m
param *.uav[61].startY 1262m
param *.uav[61].startZ 540m
param *.uav[62].startX 2185m
param *.uav[62].startY 3026m
param *.uav[62].startZ 778m
param *.uav[63].startX 3537m
param *.uav[63].startY 965m
param *.uav[63].startZ 539m
param *.uav[64].startX 312m
param *.uav[64].startY 1262m
param *.uav[64].startZ 540m
param *.uav[65].startX 2185m
param *.uav[65].startY 3026m
param *.uav[65].startZ 778m
param *.uav[66].startX 3537m
param *.uav[66].startY 965m
param *.uav[66].startZ 539m
param *.uav[67].startX 312m
param *.uav[67].startY 1262m
param *.uav[67].startZ 540m
param *.uav[68].startX 2185m
param *.uav[68].startY 3026m
param *.uav[68].startZ 778m
param *.uav[69].startX 3537m
param *.uav[69].startY 965m
param *.uav[69].startZ 539m
param *.uav[70].startX 3537m
param *.uav[70].startY 965m
param *.uav[70].startZ 539m
param *.uav[71].startX 312m
param *.uav[71].startY 1262m
param *.uav[71].startZ 540m
param *.uav[72].startX 2185m
param *.uav[72].startY 3026m
param *.uav[72].startZ 778m
param *.uav[73].startX 3537m
param *.uav[73].startY 965m
param *.uav[73].startZ 539m
param *.uav[74].startX 312m
param *.uav[74].startY 1262m
param *.uav[74].startZ 540m
param *.uav[75].startX 2185m
param *.uav[75].startY 3026m
param *.uav[75].startZ 778m
param *.uav[76].startX 3537m
param *.uav[76].startY 965m
param *.uav[76].startZ 539m
param *.uav[77].startX 312m
param *.uav[77].startY 1262m
param *.uav[77].startZ 540m
param *.uav[78].startX 2185m
param *.uav[78].startY 3026m
param *.uav[78].startZ 778m
param *.uav[79].startX 3537m
param *.uav[79].startY 965m
param *.uav[79].startZ 539m
param *.uav[80].startX 3537m
param *.uav[80].startY 965m
param *.uav[80].startZ 539m
param *.uav[81].startX 312m
param *.uav[81].startY 1262m
param *.uav[81].startZ 540m
param *.uav[82].startX 2185m
param *.uav[82].startY 3026m
param *.uav[82].startZ 778m
param *.uav[83].startX 3537m
param *.uav[83].startY 965m
param *.uav[83].startZ 539m
param *.uav[84].startX 312m
param *.uav[84].startY 1262m
param *.uav[84].startZ 540m
param *.uav[85].startX 2185m
param *.uav[85].startY 3026m
param *.uav[85].startZ 778m
param *.uav[86].startX 3537m
param *.uav[86].startY 965m
param *.uav[86].startZ 539m
param *.uav[87].startX 312m
param *.uav[87].startY 1262m
param *.uav[87].startZ 540m
param *.uav[88].startX 2185m
param *.uav[88].startY 3026m
param *.uav[88].startZ 778m
param *.uav[89].startX 3537m
param *.uav[89].startY 965m
param *.uav[89].startZ 539m
param *.uav[90].startX 3537m
param *.uav[90].startY 965m
param *.uav[90].startZ 539m
param *.uav[91].startX 312m
param *.uav[91].startY 1262m
param *.uav[91].startZ 540m
param *.uav[92].startX 2185m
param *.uav[92].startY 3026m
param *.uav[92].startZ 778m
param *.uav[93].startX 3537m
param *.uav[93].startY 965m
param *.uav[93].startZ 539m
param *.uav[94].startX 312m
param *.uav[94].startY 1262m
param *.uav[94].startZ 540m
param *.uav[95].startX 2185m
param *.uav[95].startY 3026m
param *.uav[95].startZ 778m
param *.uav[96].startX 3537m
param *.uav[96].startY 965m
param *.uav[96].startZ 539m
param *.uav[97].startX 312m
param *.uav[97].startY 1262m
param *.uav[97].startZ 540m
param *.uav[98].startX 2185m
param *.uav[98].startY 3026m
param *.uav[98].startZ 778m
param *.uav[99].startX 3537m
param *.uav[99].startY 965m
param *.uav[99].startZ 539m
param *.osgEarthScene.scene "\"boston.earth\""
param *.playgroundLatitude 42.3558
param *.playgroundLongitude -71.0677
param *.playgroundWidth 400m
param *.playgroundHeight 200m
param *.channelController.connectionColor "\"#0000FF40\""
param *.channelController.showConnections false
param *.uav[*].modelURL "\"quadrocopter.small.obj.15.scale.0,0,90.rot\""
param *.uav[*].labelColor "\"#FF7C00CC\""
param *.uav[*].label2Color "\"#FF7C00EE\""
param *.uav[*].batteryCapacity 5200mAh
param *.uav[*].batteryRemaining uav[index].batteryCapacity
param *.uav[*].predictionQuantile 0.95
param *.uav[*].replacementMethod 2
param *.uav[*].weightedSumWeight 0.5
param *.cs[*].modelURL "\"chargingstation_v1.osgt.2.scale.0,0,0.rot.0,0,-15e-1.trans\""
param *.cs[*].spotsWaiting 999
param *.cs[*].spotsCharging 999
param *.cs[*].chargeEffectivenessPercentage 100
param *.cs[*].nonLinearPhaseStartPercentage 85
param *.cs[*].chargeCurrent 6.0A
param *.cs[*].prioritizeFastCharge true
param *.missionControl.replacementSearchMethod 0
param *.*.timeStep 9s

scalar OsgEarthNet.uav[0] utilizationSecMission 40686.532432771
scalar OsgEarthNet.uav[0] utilizationSecMaintenance 18684.425599177
scalar OsgEarthNet.uav[0] utilizationSecCharge 194106.24022105
scalar OsgEarthNet.uav[0] utilizationSecIdle 5722.8007470004
scalar OsgEarthNet.uav[0] utilizationEnergyMission 196624.73144531
scalar OsgEarthNet.uav[0] utilizationEnergyMaintenance 86423.624881744
scalar OsgEarthNet.uav[0] utilizationEnergyCharge 278165.92285156
scalar OsgEarthNet.uav[0] utilizationEnergyOverdrawMission 0
scalar OsgEarthNet.uav[0] utilizationEnergyOverdrawMaintenance 0
scalar OsgEarthNet.uav[0] utilizationCountMissions 62
scalar OsgEarthNet.uav[0] utilizationCountManeuversMission 1246
scalar OsgEarthNet.uav[0] utilizationCountManeuversMaintenance 124
scalar OsgEarthNet.uav[0] utilizationCountChargeState 62
scalar OsgEarthNet.uav[0] utilizationCountOverdrawnAfterMission 0
scalar OsgEarthNet.uav[0] utilizationCountIdleState 6
scalar OsgEarthNet.uav[0] utilizationFail 0
scalar OsgEarthNet.uav[0] simulationTime 259200
scalar OsgEarthNet.uav[1] utilizationSecMission 1020
scalar OsgEarthNet.uav[1] utilizationSecMaintenance 790.69889465529
scalar OsgEarthNet.uav[1] utilizationSecCharge 7180
scalar OsgEarthNet.uav[1] utilizationSecIdle 250209.30010534
scalar OsgEarthNet.uav[1] utilizationEnergyMission 5417.8674163818
scalar OsgEarthNet.uav[1] utilizationEnergyMaintenance 3723.346824646
scalar OsgEarthNet.uav[1] utilizationEnergyCharge 9271.2534179688
scalar OsgEarthNet.uav[1] utilizationEnergyOverdrawMission 0
scalar OsgEarthNet.uav[1] utilizationEnergyOverdrawMaintenance 0
scalar OsgEarthNet.uav[1] utilizationCountMissions 2
scalar OsgEarthNet.uav[1] utilizationCountManeuversMission 51
scalar OsgEarthNet.uav[1] utilizationCountManeuversMaintenance 4
scalar OsgEarthNet.uav[1] utilizationCountChargeState 2
scalar OsgEarthNet.uav[1] utilizationCountOverdrawnAfterMission 0
scalar OsgEarthNet.uav[1] utilizationCountIdleState 3
scalar OsgEarthNet.uav[1] utilizationFail 0
scalar OsgEarthNet.uav[1] simulationTime 259200
scalar OsgEarthNet.uav[2] utilizationSecMission 41319.038352173
scalar OsgEarthNet.uav[2] utilizationSecMaintenance 17512.76284967
scalar OsgEarthNet.uav[2] utilizationSecCharge 197706.19579816
scalar OsgEarthNet.uav[2] utilizationSecIdle 2662.002
scalar OsgEarthNet.uav[2] utilizationEnergyMission 198352.24890518
scalar OsgEarthNet.uav[2] utilizationEnergyMaintenance 81361.961265564
scalar OsgEarthNet.uav[2] utilizationEnergyCharge 280007.15722656
scalar OsgEarthNet.uav[2] utilizationEnergyOverdrawMission 0
scalar OsgEarthNet.uav[2] utilizationEnergyOverdrawMaintenance 0
scalar OsgEarthNet.uav[2] utilizationCountMissions 61
scalar OsgEarthNet.uav[2] utilizationCountManeuversMission 1208
scalar OsgEarthNet.uav[2] utilizationCountManeuversMaintenance 122
scalar OsgEarthNet.uav[2] utilizationCountChargeState 61
scalar OsgEarthNet.uav[2] utilizationCountOverdrawnAfterMission 0
scalar OsgEarthNet.uav[2] utilizationCountIdleState 12
scalar OsgEarthNet.uav[2] utilizationFail 0
scalar OsgEarthNet.uav[2] simulationTime 259200
scalar OsgEarthNet.uav[3] utilizationSecMission 8463.1257629014
scalar OsgEarthNet.uav[3] utilizationSecMaintenance 5439.9468925963
scalar OsgEarthNet.uav[3] utilizationSecCharge 52430
scalar OsgEarthNet.uav[3] utilizationSecIdle 192866.9263445
scalar OsgEarthNet.uav[3] utilizationEnergyMission 41745.482135773
scalar OsgEarthNet.uav[3] utilizationEnergyMaintenance 25853.304767609
scalar OsgEarthNet.uav[3] utilizationEnergyCharge 67237.397949219
scalar OsgEarthNet.uav[3] utilizationEnergyOverdrawMission 0
scalar OsgEarthNet.uav[3] utilizationEnergyOverdrawMaintenance 0
scalar OsgEarthNet.uav[3] utilizationCountMissions 15
scalar OsgEarthNet.uav[3] utilizationCountManeuversMission 293
scalar OsgEarthNet.uav[3] utilizationCountManeuversMaintenance 30
scalar OsgEarthNet.uav[3] utilizationCountChargeState 15
scalar OsgEarthNet.uav[3] utilizationCountOverdrawnAfterMission 0
scalar OsgEarthNet.uav[3] utilizationCountIdleState 16
scalar OsgEarthNet.uav[3] utilizationFail 0
scalar OsgEarthNet.uav[3] simulationTime 259200
scalar OsgEarthNet.uav[4] utilizationSecMission 15092.839746265
scalar OsgEarthNet.uav[4] utilizationSecMaintenance 9565.1577470126
scalar OsgEarthNet.uav[4] utilizationSecCharge 91610
scalar OsgEarthNet.uav[4] utilizationSecIdle 142932.00150672
scalar OsgEarthNet.uav[4] utilizationEnergyMission 73158.052127838
scalar OsgEarthNet.uav[4] utilizationEnergyMaintenance 45625.749544037
scalar OsgEarthNet.uav[4] utilizationEnergyCharge 114348.44848633
scalar OsgEarthNet.uav[4] utilizationEnergyOverdrawMission 0
scalar OsgEarthNet.uav[4] utilizationEnergyOverdrawMaintenance 0
scalar OsgEarthNet.uav[4] utilizationCountMissions 29
scalar OsgEarthNet.uav[4] utilizationCountManeuversMission 465
scalar OsgEarthNet.uav[4] utilizationCountManeuversMaintenance 58
scalar OsgEarthNet.uav[4] utilizationCountChargeState 28
scalar OsgEarthNet.uav[4] utilizationCountOverdrawnAfterMission 0
scalar OsgEarthNet.uav[4] utilizationCountIdleState 29
scalar OsgEarthNet.uav[4] utilizationFail 0
scalar OsgEarthNet.uav[4] simulationTime 259200
scalar OsgEarthNet.uav[5] utilizationSecMission 41120.639882234
scalar OsgEarthNet.uav[5] utilizationSecMaintenance 18221.300725936
scalar OsgEarthNet.uav[5] utilizationSecCharge 195446.05339183
scalar OsgEarthNet.uav[5] utilizationSecIdle 4412.005
scalar OsgEarthNet.uav[5] utilizationEnergyMission 198226.64529419
scalar OsgEarthNet.uav[5] utilizationEnergyMaintenance 83458.766792297
scalar OsgEarthNet.uav[5] utilizationEnergyCharge 280301.57910156
scalar OsgEarthNet.uav[5] utilizationEnergyOverdrawMission 0
scalar OsgEarthNet.uav[5] utilizationEnergyOverdrawMaintenance 0
scalar OsgEarthNet.uav[5] utilizationCountMissions 62
scalar OsgEarthNet.uav[5] utilizationCountManeuversMission 1296
scalar OsgEarthNet.uav[5] utilizationCountManeuversMaintenance 124
scalar OsgEarthNet.uav[5] utilizationCountChargeState 62
scalar OsgEarthNet.uav[5] utilizationCountOverdrawnAfterMission 0
scalar OsgEarthNet.uav[5] utilizationCountIdleState 12
scalar OsgEarthNet.uav[5] utilizationFail 0
scalar OsgEarthNet.uav[5] simulationTime 259200
scalar OsgEarthNet.uav[6] utilizationSecMission 6002.5006103211
scalar OsgEarthNet.uav[6] utilizationSecMaintenance 3631.7684189993
scalar OsgEarthNet.uav[6] utilizationSecCharge 35110
scalar OsgEarthNet.uav[6] utilizationSecIdle 214455.72997068
scalar OsgEarthNet.uav[6] utilizationEnergyMission 30162.051139832
scalar OsgEarthNet.uav[6] utilizationEnergyMaintenance 17080.827476501
scalar OsgEarthNet.uav[6] utilizationEnergyCharge 45274.282714844
scalar OsgEarthNet.uav[6] utilizationEnergyOverdrawMission 0
scalar OsgEarthNet.uav[6] utilizationEnergyOverdrawMaintenance 0
scalar OsgEarthNet.uav[6] utilizationCountMissions 10
scalar OsgEarthNet.uav[6] utilizationCountManeuversMission 196
scalar OsgEarthNet.uav[6] utilizationCountManeuversMaintenance 20
scalar OsgEarthNet.uav[6] utilizationCountChargeState 10
scalar OsgEarthNet.uav[6] utilizationCountOverdrawnAfterMission 0
scalar OsgEarthNet.uav[6] utilizationCountIdleState 11
scalar OsgEarthNet.uav[6] utilizationFail 0
scalar OsgEarthNet.uav[6] simulationTime 259200
scalar OsgEarthNet.uav[7] utilizationSecMission 5789.0502943736
scalar OsgEarthNet.uav[7] utilizationSecMaintenance 4106.7076655128
scalar OsgEarthNet.uav[7] utilizationSecCharge 39130
scalar OsgEarthNet.uav[7] utilizationSecIdle 210174.24104011
scalar OsgEarthNet.uav[7] utilizationEnergyMission 28171.407047272
scalar OsgEarthNet.uav[7] utilizationEnergyMaintenance 19988.936897278
scalar OsgEarthNet.uav[7] utilizationEnergyCharge 48836.217285156
scalar OsgEarthNet.uav[7] utilizationEnergyOverdrawMission 0
scalar OsgEarthNet.uav[7] utilizationEnergyOverdrawMaintenance 0
scalar OsgEarthNet.uav[7] utilizationCountMissions 12
scalar OsgEarthNet.uav[7] utilizationCountManeuversMission 200
scalar OsgEarthNet.uav[7] utilizationCountManeuversMaintenance 24
scalar OsgEarthNet.uav[7] utilizationCountChargeState 12
scalar OsgEarthNet.uav[7] utilizationCountOverdrawnAfterMission 0
scalar OsgEarthNet.uav[7] utilizationCountIdleState 13
scalar OsgEarthNet.uav[7] utilizationFail 0
scalar OsgEarthNet.uav[7] simulationTime 259200
scalar OsgEarthNet.uav[8] utilizationSecMission 41931.397360369
scalar OsgEarthNet.uav[8] utilizationSecMaintenance 17245.948190757
scalar OsgEarthNet.uav[8] utilizationSecCharge 195750.64744887
scalar OsgEarthNet.uav[8] utilizationSecIdle 4272.006
scalar OsgEarthNet.uav[8] utilizationEnergyMission 202027.5275383
scalar OsgEarthNet.uav[8] utilizationEnergyMaintenance 78735.292430878
scalar OsgEarthNet.uav[8] utilizationEnergyCharge 278535.11328125
scalar OsgEarthNet.uav[8] utilizationEnergyOverdrawMission 0
scalar OsgEarthNet.uav[8] utilizationEnergyOverdrawMaintenance 0
scalar OsgEarthNet.uav[8] utilizationCountMissions 61
scalar OsgEarthNet.uav[8] utilizationCountManeuversMission 1175
scalar OsgEarthNet.uav[8] utilizationCountManeuversMaintenance 122
scalar OsgEarthNet.uav[8] utilizationCountChargeState 61
scalar OsgEarthNet.uav[8] utilizationCountOverdrawnAfterMission 0
scalar OsgEarthNet.uav[8] utilizationCountIdleState 11
scalar OsgEarthNet.uav[8] utilizationFail 0
scalar OsgEarthNet.uav[8] simulationTime 259200
scalar OsgEarthNet.uav[9] utilizationSecMission 7656.8349715306
scalar OsgEarthNet.uav[9] utilizationSecMaintenance 3940.556531364
scalar OsgEarthNet.uav[9] utilizationSecCharge 42420
scalar OsgEarthNet.uav[9] utilizationSecIdle 205182.60749711
scalar OsgEarthNet.uav[9] utilizationEnergyMission 36080.540596008
scalar OsgEarthNet.uav[9] utilizationEnergyMaintenance 18491.82472229
scalar OsgEarthNet.uav[9] utilizationEnergyCharge 54730.163085938
scalar OsgEarthNet.uav[9] utilizationEnergyOverdrawMission 0
scalar OsgEarthNet.uav[9] utilizationEnergyOverdrawMaintenance 0
scalar OsgEarthNet.uav[9] utilizationCountMissions 12
scalar OsgEarthNet.uav[9] utilizationCountManeuversMission 203
scalar OsgEarthNet.uav[9] utilizationCountManeuversMaintenance 24
scalar OsgEarthNet.uav[9] utilizationCountChargeState 12
scalar OsgEarthNet.uav[9] utilizationCountOverdrawnAfterMission 0
scalar OsgEarthNet.uav[9] utilizationCountIdleState 13
scalar OsgEarthNet.uav[9] utilizationFail 0
scalar OsgEarthNet.uav[9] simulationTime 259200
scalar OsgEarthNet.uav[10] utilizationSecMission 7353.4928767311
scalar OsgEarthNet.uav[10] utilizationSecMaintenance 4051.2529012377
scalar OsgEarthNet.uav[10] utilizationSecCharge 42200
scalar OsgEarthNet.uav[10] utilizationSecIdle 205595.25322203
scalar OsgEarthNet.uav[10] utilizationEnergyMission 35059.399562836
scalar OsgEarthNet.uav[10] utilizationEnergyMaintenance 19150.652755737
scalar OsgEarthNet.uav[10] utilizationEnergyCharge 54315.094238281
scalar OsgEarthNet.uav[10] utilizationEnergyOverdrawMission 0
scalar OsgEarthNet.uav[10] utilizationEnergyOverdrawMaintenance 0
scalar OsgEarthNet.uav[10] utilizationCountMissions 12
scalar OsgEarthNet.uav[10] utilizationCountManeuversMission 216
scalar OsgEarthNet.uav[10] utilizationCountManeuversMaintenance 24
scalar OsgEarthNet.uav[10] utilizationCountChargeState 12
scalar OsgEarthNet.uav[10] utilizationCountOverdrawnAfterMission 0
scalar OsgEarthNet.uav[10] utilizationCountIdleState 13
scalar OsgEarthNet.uav[10] utilizationFail 0
scalar OsgEarthNet.uav[10] simulationTime 259200
scalar OsgEarthNet.uav[11] utilizationSecMission 18061.875619702
scalar OsgEarthNet.uav[11] utilizationSecMaintenance 14236.419351648
scalar OsgEarthNet.uav[11] utilizationSecCharge 128700.74004298
scalar OsgEarthNet.uav[11] utilizationSecIdle 98200.963985674
scalar OsgEarthNet.uav[11] utilizationEnergyMission 87640.081890106
scalar OsgEarthNet.uav[11] utilizationEnergyMaintenance 66843.440048218
scalar OsgEarthNet.uav[11] utilizationEnergyCharge 155452.63671875
scalar OsgEarthNet.uav[11] utilizationEnergyOverdrawMission 0
scalar OsgEarthNet.uav[11] utilizationEnergyOverdrawMaintenance 0
scalar OsgEarthNet.uav[11] utilizationCountMissions 43
scalar OsgEarthNet.uav[11] utilizationCountManeuversMission 610
scalar OsgEarthNet.uav[11] utilizationCountManeuversMaintenance 86
scalar OsgEarthNet.uav[11] utilizationCountChargeState 43
scalar OsgEarthNet.uav[11] utilizationCountOverdrawnAfterMission 0
scalar OsgEarthNet.uav[11] utilizationCountIdleState 43
scalar OsgEarthNet.uav[11] utilizationFail 0
scalar OsgEarthNet.uav[11] simulationTime 259200
scalar OsgEarthNet.uav[12] utilizationSecMission 41562.489301613
scalar OsgEarthNet.uav[12] utilizationSecMaintenance 17809.370363369
scalar OsgEarthNet.uav[12] utilizationSecCharge 198436.13933502
scalar OsgEarthNet.uav[12] utilizationSecIdle 1392
scalar OsgEarthNet.uav[12] utilizationEnergyMission 201532.90685215
scalar OsgEarthNet.uav[12] utilizationEnergyMaintenance 82166.532356262
scalar OsgEarthNet.uav[12] utilizationEnergyCharge 283299.85009766
scalar OsgEarthNet.uav[12] utilizationEnergyOverdrawMission 0
scalar OsgEarthNet.uav[12] utilizationEnergyOverdrawMaintenance 0
scalar OsgEarthNet.uav[12] utilizationCountMissions 62
scalar OsgEarthNet.uav[12] utilizationCountManeuversMission 1327
scalar OsgEarthNet.uav[12] utilizationCountManeuversMaintenance 123
scalar OsgEarthNet.uav[12] utilizationCountChargeState 62
scalar OsgEarthNet.uav[12] utilizationCountOverdrawnAfterMission 0
scalar OsgEarthNet.uav[12] utilizationCountIdleState 8
scalar OsgEarthNet.uav[12] utilizationFail 0
scalar OsgEarthNet.uav[12] simulationTime 259200
scalar OsgEarthNet.uav[13] utilizationSecMission 6441.8754577408
scalar OsgEarthNet.uav[13] utilizationSecMaintenance 4693.5100674429
scalar OsgEarthNet.uav[13] utilizationSecCharge 42300
scalar OsgEarthNet.uav[13] utilizationSecIdle 205764.61347482
scalar OsgEarthNet.uav[13] utilizationEnergyMission 31883.173870087
scalar OsgEarthNet.uav[13] utilizationEnergyMaintenance 22146.573806763
scalar OsgEarthNet.uav[13] utilizationEnergyCharge 54475.117675781
scalar OsgEarthNet.uav[13] utilizationEnergyOverdrawMission 0
scalar OsgEarthNet.uav[13] utilizationEnergyOverdrawMaintenance 0
scalar OsgEarthNet.uav[13] utilizationCountMissions 12
scalar OsgEarthNet.uav[13] utilizationCountManeuversMission 244
scalar OsgEarthNet.uav[13] utilizationCountManeuversMaintenance 24
scalar OsgEarthNet.uav[13] utilizationCountChargeState 12
scalar OsgEarthNet.uav[13] utilizationCountOverdrawnAfterMission 0
scalar OsgEarthNet.uav[13] utilizationCountIdleState 13
scalar OsgEarthNet.uav[13] utilizationFail 0
scalar OsgEarthNet.uav[13] simulationTime 259200
scalar OsgEarthNet.uav[14] utilizationSecMission 14272.411725603
scalar OsgEarthNet.uav[14] utilizationSecMaintenance 10816.773671396
scalar OsgEarthNet.uav[14] utilizationSecCharge 98810
scalar OsgEarthNet.uav[14] utilizationSecIdle 135300.813603
scalar OsgEarthNet.uav[14] utilizationEnergyMission 72228.860683441
scalar OsgEarthNet.uav[14] utilizationEnergyMaintenance 50736.277301788
scalar OsgEarthNet.uav[14] utilizationEnergyCharge 122096.81347656
scalar OsgEarthNet.uav[14] utilizationEnergyOverdrawMission 0
scalar OsgEarthNet.uav[14] utilizationEnergyOverdrawMaintenance 0
scalar OsgEarthNet.uav[14] utilizationCountMissions 31
scalar OsgEarthNet.uav[14] utilizationCountManeuversMission 556
scalar OsgEarthNet.uav[14] utilizationCountManeuversMaintenance 62
scalar OsgEarthNet.uav[14] utilizationCountChargeState 31
scalar OsgEarthNet.uav[14] utilizationCountOverdrawnAfterMission 0
scalar OsgEarthNet.uav[14] utilizationCountIdleState 32
scalar OsgEarthNet.uav[14] utilizationFail 0
scalar OsgEarthNet.uav[14] simulationTime 259200
scalar OsgEarthNet.uav[15] utilizationSecMission 41588.167630005
scalar OsgEarthNet.uav[15] utilizationSecMaintenance 17619.827369995
scalar OsgEarthNet.uav[15] utilizationSecCharge 196210
scalar OsgEarthNet.uav[15] utilizationSecIdle 3782.004
scalar OsgEarthNet.uav[15] utilizationEnergyMission 201921.77671035
scalar OsgEarthNet.uav[15] utilizationEnergyMaintenance 80599.73116684
scalar OsgEarthNet.uav[15] utilizationEnergyCharge 280291.57568359
scalar OsgEarthNet.uav[15] utilizationEnergyOverdrawMission 0
scalar OsgEarthNet.uav[15] utilizationEnergyOverdrawMaintenance 0
scalar OsgEarthNet.uav[15] utilizationCountMissions 61
scalar OsgEarthNet.uav[15] utilizationCountManeuversMission 1300
scalar OsgEarthNet.uav[15] utilizationCountManeuversMaintenance 123
scalar OsgEarthNet.uav[15] utilizationCountChargeState 61
scalar OsgEarthNet.uav[15] utilizationCountOverdrawnAfterMission 0
scalar OsgEarthNet.uav[15] utilizationCountIdleState 12
scalar OsgEarthNet.uav[15] utilizationFail 0
scalar OsgEarthNet.uav[15] simulationTime 259200
scalar OsgEarthNet.uav[16] utilizationSecMission 7783.7509154817
scalar OsgEarthNet.uav[16] utilizationSecMaintenance 4552.9398880908
scalar OsgEarthNet.uav[16] utilizationSecCharge 46160
scalar OsgEarthNet.uav[16] utilizationSecIdle 200703.30819643
scalar OsgEarthNet.uav[16] utilizationEnergyMission 38293.06332016
scalar OsgEarthNet.uav[16] utilizationEnergyMaintenance 21605.385158539
scalar OsgEarthNet.uav[16] utilizationEnergyCharge 59925.145996094
scalar OsgEarthNet.uav[16] utilizationEnergyOverdrawMission 0
scalar OsgEarthNet.uav[16] utilizationEnergyOverdrawMaintenance 0
scalar OsgEarthNet.uav[16] utilizationCountMissions 13
scalar OsgEarthNet.uav[16] utilizationCountManeuversMission 233
scalar OsgEarthNet.uav[16] utilizationCountManeuversMaintenance 26
scalar OsgEarthNet.uav[16] utilizationCountChargeState 13
scalar OsgEarthNet.uav[16] utilizationCountOverdrawnAfterMission 0
scalar OsgEarthNet.uav[16] utilizationCountIdleState 14
scalar OsgEarthNet.uav[16] utilizationFail 0
scalar OsgEarthNet.uav[16] simulationTime 259200
scalar OsgEarthNet.uav[17] utilizationSecMission 15171.007584859
scalar OsgEarthNet.uav[17] utilizationSecMaintenance 10954.90503828
scalar OsgEarthNet.uav[17] utilizationSecCharge 103100
scalar OsgEarthNet.uav[17] utilizationSecIdle 129974.08637686
scalar OsgEarthNet.uav[17] utilizationEnergyMission 74944.635398865
scalar OsgEarthNet.uav[17] utilizationEnergyMaintenance 52002.599529266
scalar OsgEarthNet.uav[17] utilizationEnergyCharge 126581.59960938
scalar OsgEarthNet.uav[17] utilizationEnergyOverdrawMission 0
scalar OsgEarthNet.uav[17] utilizationEnergyOverdrawMaintenance 0
scalar OsgEarthNet.uav[17] utilizationCountMissions 33
scalar OsgEarthNet.uav[17] utilizationCountManeuversMission 497
scalar OsgEarthNet.uav[17] utilizationCountManeuversMaintenance 66
scalar OsgEarthNet.uav[17] utilizationCountChargeState 33
scalar OsgEarthNet.uav[17] utilizationCountOverdrawnAfterMission 0
scalar OsgEarthNet.uav[17] utilizationCountIdleState 34
scalar OsgEarthNet.uav[17] utilizationFail 0
scalar OsgEarthNet.uav[17] simulationTime 259200
scalar OsgEarthNet.uav[18] utilizationSecMission 42135.375804227
scalar OsgEarthNet.uav[18] utilizationSecMaintenance 17286.869112637
scalar OsgEarthNet.uav[18] utilizationSecCharge 196752.29842652
scalar OsgEarthNet.uav[18] utilizationSecIdle 3025.4556566199
scalar OsgEarthNet.uav[18] utilizationEnergyMission 200679.39817047
scalar OsgEarthNet.uav[18] utilizationEnergyMaintenance 79948.976783752
scalar OsgEarthNet.uav[18] utilizationEnergyCharge 278705.6706543
scalar OsgEarthNet.uav[18] utilizationEnergyOverdrawMission 0
scalar OsgEarthNet.uav[18] utilizationEnergyOverdrawMaintenance 0
scalar OsgEarthNet.uav[18] utilizationCountMissions 61
scalar OsgEarthNet.uav[18] utilizationCountManeuversMission 1085
scalar OsgEarthNet.uav[18] utilizationCountManeuversMaintenance 122
scalar OsgEarthNet.uav[18] utilizationCountChargeState 61
scalar OsgEarthNet.uav[18] utilizationCountOverdrawnAfterMission 0
scalar OsgEarthNet.uav[18] utilizationCountIdleState 13
scalar OsgEarthNet.uav[18] utilizationFail 0
scalar OsgEarthNet.uav[18] simulationTime 259200
scalar OsgEarthNet.uav[19] utilizationSecMission 7713.4928767311
scalar OsgEarthNet.uav[19] utilizationSecMaintenance 4508.695886422
scalar OsgEarthNet.uav[19] utilizationSecCharge 46310
scalar OsgEarthNet.uav[19] utilizationSecIdle 200667.81023685
scalar OsgEarthNet.uav[19] utilizationEnergyMission 37141.418384552
scalar OsgEarthNet.uav[19] utilizationEnergyMaintenance 21505.952064514
scalar OsgEarthNet.uav[19] utilizationEnergyCharge 59747.55859375
scalar OsgEarthNet.uav[19] utilizationEnergyOverdrawMission 0
scalar OsgEarthNet.uav[19] utilizationEnergyOverdrawMaintenance 0
scalar OsgEarthNet.uav[19] utilizationCountMissions 13
scalar OsgEarthNet.uav[19] utilizationCountManeuversMission 234
scalar OsgEarthNet.uav[19] utilizationCountManeuversMaintenance 26
scalar OsgEarthNet.uav[19] utilizationCountChargeState 13
scalar OsgEarthNet.uav[19] utilizationCountOverdrawnAfterMission 0
scalar OsgEarthNet.uav[19] utilizationCountIdleState 14
scalar OsgEarthNet.uav[19] utilizationFail 0
scalar OsgEarthNet.uav[19] simulationTime 259200
scalar OsgEarthNet.uav[20] utilizationSecMission 16229.847301451
scalar OsgEarthNet.uav[20] utilizationSecMaintenance 10448.151698549
scalar OsgEarthNet.uav[20] utilizationSecCharge 98530
scalar OsgEarthNet.uav[20] utilizationSecIdle 133992
scalar OsgEarthNet.uav[20] utilizationEnergyMission 79866.842186091
scalar OsgEarthNet.uav[20] utilizationEnergyMaintenance 49388.467453003
scalar OsgEarthNet.uav[20] utilizationEnergyCharge 127008.75390625
scalar OsgEarthNet.uav[20] utilizationEnergyOverdrawMission 0
scalar OsgEarthNet.uav[20] utilizationEnergyOverdrawMaintenance 0
scalar OsgEarthNet.uav[20] utilizationCountMissions 28
scalar OsgEarthNet.uav[20] utilizationCountManeuversMission 555
scalar OsgEarthNet.uav[20] utilizationCountManeuversMaintenance 56
scalar OsgEarthNet.uav[20] utilizationCountChargeState 28
scalar OsgEarthNet.uav[20] utilizationCountOverdrawnAfterMission 0
scalar OsgEarthNet.uav[20] utilizationCountIdleState 29
scalar OsgEarthNet.uav[20] utilizationFail 0
scalar OsgEarthNet.uav[20] simulationTime 259200
scalar OsgEarthNet.uav[21] utilizationSecMission 14904.203051617
scalar OsgEarthNet.uav[21] utilizationSecMaintenance 10403.789948383
scalar OsgEarthNet.uav[21] utilizationSecCharge 99000
scalar OsgEarthNet.uav[21] utilizationSecIdle 134892.006
scalar OsgEarthNet.uav[21] utilizationEnergyMission 73240.994270325
scalar OsgEarthNet.uav[21] utilizationEnergyMaintenance 49576.172001019
scalar OsgEarthNet.uav[21] utilizationEnergyCharge 122329.42407227
scalar OsgEarthNet.uav[21] utilizationEnergyOverdrawMission 0
scalar OsgEarthNet.uav[21] utilizationEnergyOverdrawMaintenance 0
scalar OsgEarthNet.uav[21] utilizationCountMissions 31
scalar OsgEarthNet.uav[21] utilizationCountManeuversMission 499
scalar OsgEarthNet.uav[21] utilizationCountManeuversMaintenance 63
scalar OsgEarthNet.uav[21] utilizationCountChargeState 31
scalar OsgEarthNet.uav[21] utilizationCountOverdrawnAfterMission 0
scalar OsgEarthNet.uav[21] utilizationCountIdleState 32
scalar OsgEarthNet.uav[21] utilizationFail 0
scalar OsgEarthNet.uav[21] simulationTime 259200
scalar OsgEarthNet.uav[22] utilizationSecMission 41789.621968926
scalar OsgEarthNet.uav[22] utilizationSecMaintenance 17893.264056158
scalar OsgEarthNet.uav[22] utilizationSecCharge 196500.76275409
scalar OsgEarthNet.uav[22] utilizationSecIdle 3016.3502208215
scalar OsgEarthNet.uav[22] utilizationEnergyMission 203313.94947433
scalar OsgEarthNet.uav[22] utilizationEnergyMaintenance 81299.443183899
scalar OsgEarthNet.uav[22] utilizationEnergyCharge 280832.24365234
scalar OsgEarthNet.uav[22] utilizationEnergyOverdrawMission 0
scalar OsgEarthNet.uav[22] utilizationEnergyOverdrawMaintenance 0
scalar OsgEarthNet.uav[22] utilizationCountMissions 62
scalar OsgEarthNet.uav[22] utilizationCountManeuversMission 1278
scalar OsgEarthNet.uav[22] utilizationCountManeuversMaintenance 124
scalar OsgEarthNet.uav[22] utilizationCountChargeState 62
scalar OsgEarthNet.uav[22] utilizationCountOverdrawnAfterMission 0
scalar OsgEarthNet.uav[22] utilizationCountIdleState 12
scalar OsgEarthNet.uav[22] utilizationFail 0
scalar OsgEarthNet.uav[22] simulationTime 259200
scalar OsgEarthNet.uav[23] utilizationSecMission 11283.125762901
scalar OsgEarthNet.uav[23] utilizationSecMaintenance 8211.9045756634
scalar OsgEarthNet.uav[23] utilizationSecCharge 73410
scalar OsgEarthNet.uav[23] utilizationSecIdle 166294.96866144
scalar OsgEarthNet.uav[23] utilizationEnergyMission 55516.708950043
scalar OsgEarthNet.uav[23] utilizationEnergyMaintenance 39220.688228607
scalar OsgEarthNet.uav[23] utilizationEnergyCharge 94432.809082031
scalar OsgEarthNet.uav[23] utilizationEnergyOverdrawMission 0
scalar OsgEarthNet.uav[23] utilizationEnergyOverdrawMaintenance 0
scalar OsgEarthNet.uav[23] utilizationCountMissions 21
scalar OsgEarthNet.uav[23] utilizationCountManeuversMission 434
scalar OsgEarthNet.uav[23] utilizationCountManeuversMaintenance 42
scalar OsgEarthNet.uav[23] utilizationCountChargeState 21
scalar OsgEarthNet.uav[23] utilizationCountOverdrawnAfterMission 0
scalar OsgEarthNet.uav[23] utilizationCountIdleState 22
scalar OsgEarthNet.uav[23] utilizationFail 0
scalar OsgEarthNet.uav[23] simulationTime 259200
scalar OsgEarthNet.uav[24] utilizationSecMission 12604.698322126
scalar OsgEarthNet.uav[24] utilizationSecMaintenance 8681.8733864376
scalar OsgEarthNet.uav[24] utilizationSecCharge 81510
scalar OsgEarthNet.uav[24] utilizationSecIdle 156403.42729144
scalar OsgEarthNet.uav[24] utilizationEnergyMission 61563.107570648
scalar OsgEarthNet.uav[24] utilizationEnergyMaintenance 41288.001659393
scalar OsgEarthNet.uav[24] utilizationEnergyCharge 101550.13037109
scalar OsgEarthNet.uav[24] utilizationEnergyOverdrawMission 0
scalar OsgEarthNet.uav[24] utilizationEnergyOverdrawMaintenance 0
scalar OsgEarthNet.uav[24] utilizationCountMissions 25
scalar OsgEarthNet.uav[24] utilizationCountManeuversMission 459
scalar OsgEarthNet.uav[24] utilizationCountManeuversMaintenance 50
scalar OsgEarthNet.uav[24] utilizationCountChargeState 25
scalar OsgEarthNet.uav[24] utilizationCountOverdrawnAfterMission 0
scalar OsgEarthNet.uav[24] utilizationCountIdleState 26
scalar OsgEarthNet.uav[24] utilizationFail 0
scalar OsgEarthNet.uav[24] simulationTime 259200
scalar OsgEarthNet.uav[25] utilizationSecMission 41146.623468281
scalar OsgEarthNet.uav[25] utilizationSecMaintenance 17973.917180413
scalar OsgEarthNet.uav[25] utilizationSecCharge 195060
scalar OsgEarthNet.uav[25] utilizationSecIdle 5019.4583513061
scalar OsgEarthNet.uav[25] utilizationEnergyMission 200502.61864649
scalar OsgEarthNet.uav[25] utilizationEnergyMaintenance 82498.546943665
scalar OsgEarthNet.uav[25] utilizationEnergyCharge 280298.77441406
scalar OsgEarthNet.uav[25] utilizationEnergyOverdrawMission 0
scalar OsgEarthNet.uav[25] utilizationEnergyOverdrawMaintenance 0
scalar OsgEarthNet.uav[25] utilizationCountMissions 61
scalar OsgEarthNet.uav[25] utilizationCountManeuversMission 1264
scalar OsgEarthNet.uav[25] utilizationCountManeuversMaintenance 123
scalar OsgEarthNet.uav[25] utilizationCountChargeState 61
scalar OsgEarthNet.uav[25] utilizationCountOverdrawnAfterMission 0
scalar OsgEarthNet.uav[25] utilizationCountIdleState 10
scalar OsgEarthNet.uav[25] utilizationFail 0
scalar OsgEarthNet.uav[25] simulationTime 259200
scalar OsgEarthNet.uav[26] utilizationSecMission 13906.876678383
scalar OsgEarthNet.uav[26] utilizationSecMaintenance 7766.0608935635
scalar OsgEarthNet.uav[26] utilizationSecCharge 80124.295445525
scalar OsgEarthNet.uav[26] utilizationSecIdle 157402.76598253
scalar OsgEarthNet.uav[26] utilizationEnergyMission 67087.74048233
scalar OsgEarthNet.uav[26] utilizationEnergyMaintenance 37213.813140869
scalar OsgEarthNet.uav[26] utilizationEnergyCharge 104329.11962891
scalar OsgEarthNet.uav[26] utilizationEnergyOverdrawMission 0
scalar OsgEarthNet.uav[26] utilizationEnergyOverdrawMaintenance 0
scalar OsgEarthNet.uav[26] utilizationCountMissions 23
scalar OsgEarthNet.uav[26] utilizationCountManeuversMission 409
scalar OsgEarthNet.uav[26] utilizationCountManeuversMaintenance 46
scalar OsgEarthNet.uav[26] utilizationCountChargeState 23
scalar OsgEarthNet.uav[26] utilizationCountOverdrawnAfterMission 0
scalar OsgEarthNet.uav[26] utilizationCountIdleState 23
scalar OsgEarthNet.uav[26] utilizationFail 0
scalar OsgEarthNet.uav[26] simulationTime 259200
scalar OsgEarthNet.uav[27] utilizationSecMission 17207.796886623
scalar OsgEarthNet.uav[27] utilizationSecMaintenance 10681.496094833
scalar OsgEarthNet.uav[27] utilizationSecCharge 105100
scalar OsgEarthNet.uav[27] utilizationSecIdle 126210.70601854
scalar OsgEarthNet.uav[27] utilizationEnergyMission 83621.474718781
scalar OsgEarthNet.uav[27] utilizationEnergyMaintenance 51159.76461792
scalar OsgEarthNet.uav[27] utilizationEnergyCharge 133319.78735352
scalar OsgEarthNet.uav[27] utilizationEnergyOverdrawMission 0
scalar OsgEarthNet.uav[27] utilizationEnergyOverdrawMaintenance 0
scalar OsgEarthNet.uav[27] utilizationCountMissions 31
scalar OsgEarthNet.uav[27] utilizationCountManeuversMission 564
scalar OsgEarthNet.uav[27] utilizationCountManeuversMaintenance 63
scalar OsgEarthNet.uav[27] utilizationCountChargeState 31
scalar OsgEarthNet.uav[27] utilizationCountOverdrawnAfterMission 0
scalar OsgEarthNet.uav[27] utilizationCountIdleState 32
scalar OsgEarthNet.uav[27] utilizationFail 0
scalar OsgEarthNet.uav[27] simulationTime 259200
scalar OsgEarthNet.uav[28] utilizationSecMission 41528.565827176
scalar OsgEarthNet.uav[28] utilizationSecMaintenance 18202.585010827
scalar OsgEarthNet.uav[28] utilizationSecCharge 196180
scalar OsgEarthNet.uav[28] utilizationSecIdle 3288.8481619971
scalar OsgEarthNet.uav[28] utilizationEnergyMission 198826.95721369
scalar OsgEarthNet.uav[28] utilizationEnergyMaintenance 84071.27481842
scalar OsgEarthNet.uav[28] utilizationEnergyCharge 279751.93359375
scalar OsgEarthNet.uav[28] utilizationEnergyOverdrawMission 0
scalar OsgEarthNet.uav[28] utilizationEnergyOverdrawMaintenance 0
scalar OsgEarthNet.uav[28] utilizationCountMissions 61
scalar OsgEarthNet.uav[28] utilizationCountManeuversMission 1265
scalar OsgEarthNet.uav[28] utilizationCountManeuversMaintenance 123
scalar OsgEarthNet.uav[28] utilizationCountChargeState 61
scalar OsgEarthNet.uav[28] utilizationCountOverdrawnAfterMission 0
scalar OsgEarthNet.uav[28] utilizationCountIdleState 7
scalar OsgEarthNet.uav[28] utilizationFail 0
scalar OsgEarthNet.uav[28] simulationTime 259200
scalar OsgEarthNet.uav[29] utilizationSecMission 10854.118029311
scalar OsgEarthNet.uav[29] utilizationSecMaintenance 7016.3967944411
scalar OsgEarthNet.uav[29] utilizationSecCharge 67150
scalar OsgEarthNet.uav[29] utilizationSecIdle 174179.48417625
scalar OsgEarthNet.uav[29] utilizationEnergyMission 54025.376472473
scalar OsgEarthNet.uav[29] utilizationEnergyMaintenance 33874.5742836
scalar OsgEarthNet.uav[29] utilizationEnergyCharge 86958.938476562
scalar OsgEarthNet.uav[29] utilizationEnergyOverdrawMission 0
scalar OsgEarthNet.uav[29] utilizationEnergyOverdrawMaintenance 0
scalar OsgEarthNet.uav[29] utilizationCountMissions 19
scalar OsgEarthNet.uav[29] utilizationCountManeuversMission 365
scalar OsgEarthNet.uav[29] utilizationCountManeuversMaintenance 38
scalar OsgEarthNet.uav[29] utilizationCountChargeState 19
scalar OsgEarthNet.uav[29] utilizationCountOverdrawnAfterMission 0
scalar OsgEarthNet.uav[29] utilizationCountIdleState 20
scalar OsgEarthNet.uav[29] utilizationFail 0
scalar OsgEarthNet.uav[29] simulationTime 259200
scalar OsgEarthNet.uav[30] utilizationSecMission 9534.1180293114
scalar OsgEarthNet.uav[30] utilizationSecMaintenance 5509.3782282887
scalar OsgEarthNet.uav[30] utilizationSecCharge 53083.110607677
scalar OsgEarthNet.uav[30] utilizationSecIdle 191073.39213472
scalar OsgEarthNet.uav[30] utilizationEnergyMission 46921.006069183
scalar OsgEarthNet.uav[30] utilizationEnergyMaintenance 26027.125072479
scalar OsgEarthNet.uav[30] utilizationEnergyCharge 68652.908081055
scalar OsgEarthNet.uav[30] utilizationEnergyOverdrawMission 0
scalar OsgEarthNet.uav[30] utilizationEnergyOverdrawMaintenance 0
scalar OsgEarthNet.uav[30] utilizationCountMissions 16
scalar OsgEarthNet.uav[30] utilizationCountManeuversMission 299
scalar OsgEarthNet.uav[30] utilizationCountManeuversMaintenance 32
scalar OsgEarthNet.uav[30] utilizationCountChargeState 16
scalar OsgEarthNet.uav[30] utilizationCountOverdrawnAfterMission 0
scalar OsgEarthNet.uav[30] utilizationCountIdleState 16
scalar OsgEarthNet.uav[30] utilizationFail 0
scalar OsgEarthNet.uav[30] simulationTime 259200
scalar OsgEarthNet.uav[31] utilizationSecMission 14373.460145854
scalar OsgEarthNet.uav[31] utilizationSecMaintenance 10082.184931759
scalar OsgEarthNet.uav[31] utilizationSecCharge 95320
scalar OsgEarthNet.uav[31] utilizationSecIdle 139424.35392239
scalar OsgEarthNet.uav[31] utilizationEnergyMission 68735.838443756
scalar OsgEarthNet.uav[31] utilizationEnergyMaintenance 49199.383442905
scalar OsgEarthNet.uav[31] utilizationEnergyCharge 113906.90039062
scalar OsgEarthNet.uav[31] utilizationEnergyOverdrawMission 0
scalar OsgEarthNet.uav[31] utilizationEnergyOverdrawMaintenance 0
scalar OsgEarthNet.uav[31] utilizationCountMissions 33
scalar OsgEarthNet.uav[31] utilizationCountManeuversMission 360
scalar OsgEarthNet.uav[31] utilizationCountManeuversMaintenance 66
scalar OsgEarthNet.uav[31] utilizationCountChargeState 32
scalar OsgEarthNet.uav[31] utilizationCountOverdrawnAfterMission 0
scalar OsgEarthNet.uav[31] utilizationCountIdleState 33
scalar OsgEarthNet.uav[31] utilizationFail 0
scalar OsgEarthNet.uav[31] simulationTime 259200
scalar OsgEarthNet.uav[32] utilizationSecMission 42639.375301549
scalar OsgEarthNet.uav[32] utilizationSecMaintenance 17020.379513182
scalar OsgEarthNet.uav[32] utilizationSecCharge 197561.06907486
scalar OsgEarthNet.uav[32] utilizationSecIdle 1979.1751104107
scalar OsgEarthNet.uav[32] utilizationEnergyMission 206700.19720078
scalar OsgEarthNet.uav[32] utilizationEnergyMaintenance 77273.343055725
scalar OsgEarthNet.uav[32] utilizationEnergyCharge 281706.13134766
scalar OsgEarthNet.uav[32] utilizationEnergyOverdrawMission 0
scalar OsgEarthNet.uav[32] utilizationEnergyOverdrawMaintenance 0
scalar OsgEarthNet.uav[32] utilizationCountMissions 62
scalar OsgEarthNet.uav[32] utilizationCountManeuversMission 1279
scalar OsgEarthNet.uav[32] utilizationCountManeuversMaintenance 124
scalar OsgEarthNet.uav[32] utilizationCountChargeState 62
scalar OsgEarthNet.uav[32] utilizationCountOverdrawnAfterMission 0
scalar OsgEarthNet.uav[32] utilizationCountIdleState 11
scalar OsgEarthNet.uav[32] utilizationFail 0
scalar OsgEarthNet.uav[32] simulationTime 259200
scalar OsgEarthNet.uav[33] utilizationSecMission 16386.251525803
scalar OsgEarthNet.uav[33] utilizationSecMaintenance 10694.865450832
scalar OsgEarthNet.uav[33] utilizationSecCharge 101660
scalar OsgEarthNet.uav[33] utilizationSecIdle 130458.88202336
scalar OsgEarthNet.uav[33] utilizationEnergyMission 78817.77633667
scalar OsgEarthNet.uav[33] utilizationEnergyMaintenance 50611.833034515
scalar OsgEarthNet.uav[33] utilizationEnergyCharge 130842.38476562
scalar OsgEarthNet.uav[33] utilizationEnergyOverdrawMission 0
scalar OsgEarthNet.uav[33] utilizationEnergyOverdrawMaintenance 0
scalar OsgEarthNet.uav[33] utilizationCountMissions 29
scalar OsgEarthNet.uav[33] utilizationCountManeuversMission 559
scalar OsgEarthNet.uav[33] utilizationCountManeuversMaintenance 58
scalar OsgEarthNet.uav[33] utilizationCountChargeState 29
scalar OsgEarthNet.uav[33] utilizationCountOverdrawnAfterMission 0
scalar OsgEarthNet.uav[33] utilizationCountIdleState 30
scalar OsgEarthNet.uav[33] utilizationFail 0
scalar OsgEarthNet.uav[33] simulationTime 259200
scalar OsgEarthNet.uav[34] utilizationSecMission 21577.403533453
scalar OsgEarthNet.uav[34] utilizationSecMaintenance 14757.161073623
scalar OsgEarthNet.uav[34] utilizationSecCharge 139103.43339292
scalar OsgEarthNet.uav[34] utilizationSecIdle 83762.001
scalar OsgEarthNet.uav[34] utilizationEnergyMission 105782.44231033
scalar OsgEarthNet.uav[34] utilizationEnergyMaintenance 69942.24079895
scalar OsgEarthNet.uav[34] utilizationEnergyCharge 173015.82128906
scalar OsgEarthNet.uav[34] utilizationEnergyOverdrawMission 0
scalar OsgEarthNet.uav[34] utilizationEnergyOverdrawMaintenance 0
scalar OsgEarthNet.uav[34] utilizationCountMissions 44
scalar OsgEarthNet.uav[34] utilizationCountManeuversMission 700
scalar OsgEarthNet.uav[34] utilizationCountManeuversMaintenance 88
scalar OsgEarthNet.uav[34] utilizationCountChargeState 44
scalar OsgEarthNet.uav[34] utilizationCountOverdrawnAfterMission 0
scalar OsgEarthNet.uav[34] utilizationCountIdleState 44
scalar OsgEarthNet.uav[34] utilizationFail 0
scalar OsgEarthNet.uav[34] simulationTime 259200
scalar OsgEarthNet.uav[35] utilizationSecMission 42328.543052567
scalar OsgEarthNet.uav[35] utilizationSecMaintenance 18081.69142453
scalar OsgEarthNet.uav[35] utilizationSecCharge 193845.46414368
scalar OsgEarthNet.uav[35] utilizationSecIdle 4944.3003792274
scalar OsgEarthNet.uav[35] utilizationEnergyMission 203420.25534821
scalar OsgEarthNet.uav[35] utilizationEnergyMaintenance 83245.467777252
scalar OsgEarthNet.uav[35] utilizationEnergyCharge 278960.1038208
scalar OsgEarthNet.uav[35] utilizationEnergyOverdrawMission 0
scalar OsgEarthNet.uav[35] utilizationEnergyOverdrawMaintenance 0
scalar OsgEarthNet.uav[35] utilizationCountMissions 62
scalar OsgEarthNet.uav[35] utilizationCountManeuversMission 1210
scalar OsgEarthNet.uav[35] utilizationCountManeuversMaintenance 124
scalar OsgEarthNet.uav[35] utilizationCountChargeState 62
scalar OsgEarthNet.uav[35] utilizationCountOverdrawnAfterMission 0
scalar OsgEarthNet.uav[35] utilizationCountIdleState 10
scalar OsgEarthNet.uav[35] utilizationFail 0
scalar OsgEarthNet.uav[35] simulationTime 259200
scalar OsgEarthNet.uav[36] utilizationSecMission 16777.134717134
scalar OsgEarthNet.uav[36] utilizationSecMaintenance 10756.997222237
scalar OsgEarthNet.uav[36] utilizationSecCharge 102920
scalar OsgEarthNet.uav[36] utilizationSecIdle 128745.86706063
scalar OsgEarthNet.uav[36] utilizationEnergyMission 81731.838260651
scalar OsgEarthNet.uav[36] utilizationEnergyMaintenance 51497.622829437
scalar OsgEarthNet.uav[36] utilizationEnergyCharge 133225.31689453
scalar OsgEarthNet.uav[36] utilizationEnergyOverdrawMission 0
scalar OsgEarthNet.uav[36] utilizationEnergyOverdrawMaintenance 0
scalar OsgEarthNet.uav[36] utilizationCountMissions 29
scalar OsgEarthNet.uav[36] utilizationCountManeuversMission 548
scalar OsgEarthNet.uav[36] utilizationCountManeuversMaintenance 58
scalar OsgEarthNet.uav[36] utilizationCountChargeState 29
scalar OsgEarthNet.uav[36] utilizationCountOverdrawnAfterMission 0
scalar OsgEarthNet.uav[36] utilizationCountIdleState 30
scalar OsgEarthNet.uav[36] utilizationFail 0
scalar OsgEarthNet.uav[36] simulationTime 259200
scalar OsgEarthNet.uav[37] utilizationSecMission 18583.707781108
scalar OsgEarthNet.uav[37] utilizationSecMaintenance 13284.008034521
scalar OsgEarthNet.uav[37] utilizationSecCharge 124820
scalar OsgEarthNet.uav[37] utilizationSecIdle 102512.28318437
scalar OsgEarthNet.uav[37] utilizationEnergyMission 90968.628715515
scalar OsgEarthNet.uav[37] utilizationEnergyMaintenance 62968.467407227
scalar OsgEarthNet.uav[37] utilizationEnergyCharge 152369.71386719
scalar OsgEarthNet.uav[37] utilizationEnergyOverdrawMission 0
scalar OsgEarthNet.uav[37] utilizationEnergyOverdrawMaintenance 0
scalar OsgEarthNet.uav[37] utilizationCountMissions 40
scalar OsgEarthNet.uav[37] utilizationCountManeuversMission 608
scalar OsgEarthNet.uav[37] utilizationCountManeuversMaintenance 80
scalar OsgEarthNet.uav[37] utilizationCountChargeState 40
scalar OsgEarthNet.uav[37] utilizationCountOverdrawnAfterMission 0
scalar OsgEarthNet.uav[37] utilizationCountIdleState 41
scalar OsgEarthNet.uav[37] utilizationFail 0
scalar OsgEarthNet.uav[37] simulationTime 259200
scalar OsgEarthNet.uav[38] utilizationSecMission 41650.634636306
scalar OsgEarthNet.uav[38] utilizationSecMaintenance 18301.868457764
scalar OsgEarthNet.uav[38] utilizationSecCharge 197045.49290593
scalar OsgEarthNet.uav[38] utilizationSecIdle 2202.003
scalar OsgEarthNet.uav[38] utilizationEnergyMission 201038.91786575
scalar OsgEarthNet.uav[38] utilizationEnergyMaintenance 84499.427375794
scalar OsgEarthNet.uav[38] utilizationEnergyCharge 284458.90087891
scalar OsgEarthNet.uav[38] utilizationEnergyOverdrawMission 0
scalar OsgEarthNet.uav[38] utilizationEnergyOverdrawMaintenance 0
scalar OsgEarthNet.uav[38] utilizationCountMissions 62
scalar OsgEarthNet.uav[38] utilizationCountManeuversMission 1232
scalar OsgEarthNet.uav[38] utilizationCountManeuversMaintenance 124
scalar OsgEarthNet.uav[38] utilizationCountChargeState 62
scalar OsgEarthNet.uav[38] utilizationCountOverdrawnAfterMission 0
scalar OsgEarthNet.uav[38] utilizationCountIdleState 9
scalar OsgEarthNet.uav[38] utilizationFail 0
scalar OsgEarthNet.uav[38] simulationTime 259200
scalar OsgEarthNet.uav[39] utilizationSecMission 16878.385022294
scalar OsgEarthNet.uav[39] utilizationSecMaintenance 9626.339818023
scalar OsgEarthNet.uav[39] utilizationSecCharge 98580
scalar OsgEarthNet.uav[39] utilizationSecIdle 134115.27415968
scalar OsgEarthNet.uav[39] utilizationEnergyMission 80953.471675873
scalar OsgEarthNet.uav[39] utilizationEnergyMaintenance 45442.066757202
scalar OsgEarthNet.uav[39] utilizationEnergyCharge 126964.20068359
scalar OsgEarthNet.uav[39] utilizationEnergyOverdrawMission 0
scalar OsgEarthNet.uav[39] utilizationEnergyOverdrawMaintenance 0
scalar OsgEarthNet.uav[39] utilizationCountMissions 28
scalar OsgEarthNet.uav[39] utilizationCountManeuversMission 501
scalar OsgEarthNet.uav[39] utilizationCountManeuversMaintenance 56
scalar OsgEarthNet.uav[39] utilizationCountChargeState 28
scalar OsgEarthNet.uav[39] utilizationCountOverdrawnAfterMission 0
scalar OsgEarthNet.uav[39] utilizationCountIdleState 29
scalar OsgEarthNet.uav[39] utilizationFail 0
scalar OsgEarthNet.uav[39] simulationTime 259200
scalar OsgEarthNet.uav[40] utilizationSecMission 15957.134717134
scalar OsgEarthNet.uav[40] utilizationSecMaintenance 9697.4191868077
scalar OsgEarthNet.uav[40] utilizationSecCharge 92689.866440417
scalar OsgEarthNet.uav[40] utilizationSecIdle 140855.57865564
scalar OsgEarthNet.uav[40] utilizationEnergyMission 76901.872421265
scalar OsgEarthNet.uav[40] utilizationEnergyMaintenance 46597.944473266
scalar OsgEarthNet.uav[40] utilizationEnergyCharge 120060.76025391
scalar OsgEarthNet.uav[40] utilizationEnergyOverdrawMission 0
scalar OsgEarthNet.uav[40] utilizationEnergyOverdrawMaintenance 0
scalar OsgEarthNet.uav[40] utilizationCountMissions 27
scalar OsgEarthNet.uav[40] utilizationCountManeuversMission 507
scalar OsgEarthNet.uav[40] utilizationCountManeuversMaintenance 54
scalar OsgEarthNet.uav[40] utilizationCountChargeState 27
scalar OsgEarthNet.uav[40] utilizationCountOverdrawnAfterMission 0
scalar OsgEarthNet.uav[40] utilizationCountIdleState 27
scalar OsgEarthNet.uav[40] utilizationFail 0
scalar OsgEarthNet.uav[40] simulationTime 259200
scalar OsgEarthNet.uav[41] utilizationSecMission 18424.496537341
scalar OsgEarthNet.uav[41] utilizationSecMaintenance 12381.337825173
scalar OsgEarthNet.uav[41] utilizationSecCharge 118337.2003323
scalar OsgEarthNet.uav[41] utilizationSecIdle 110056.96430518
scalar OsgEarthNet.uav[41] utilizationEnergyMission 90957.664279938
scalar OsgEarthNet.uav[41] utilizationEnergyMaintenance 59451.292629242
scalar OsgEarthNet.uav[41] utilizationEnergyCharge 149887.73193359
scalar OsgEarthNet.uav[41] utilizationEnergyOverdrawMission 0
scalar OsgEarthNet.uav[41] utilizationEnergyOverdrawMaintenance 0
scalar OsgEarthNet.uav[41] utilizationCountMissions 36
scalar OsgEarthNet.uav[41] utilizationCountManeuversMission 625
scalar OsgEarthNet.uav[41] utilizationCountManeuversMaintenance 72
scalar OsgEarthNet.uav[41] utilizationCountChargeState 36
scalar OsgEarthNet.uav[41] utilizationCountOverdrawnAfterMission 0
scalar OsgEarthNet.uav[41] utilizationCountIdleState 36
scalar OsgEarthNet.uav[41] utilizationFail 0
scalar OsgEarthNet.uav[41] simulationTime 259200
scalar OsgEarthNet.uav[42] utilizationSecMission 42358.515007086
scalar OsgEarthNet.uav[42] utilizationSecMaintenance 17250.6644705
scalar OsgEarthNet.uav[42] utilizationSecCharge 197411.5999085
scalar OsgEarthNet.uav[42] utilizationSecIdle 2179.2196139157
scalar OsgEarthNet.uav[42] utilizationEnergyMission 205732.36082077
scalar OsgEarthNet.uav[42] utilizationEnergyMaintenance 80027.733177185
scalar OsgEarthNet.uav[42] utilizationEnergyCharge 281952.89282227
scalar OsgEarthNet.uav[42] utilizationEnergyOverdrawMission 0
scalar OsgEarthNet.uav[42] utilizationEnergyOverdrawMaintenance 0
scalar OsgEarthNet.uav[42] utilizationCountMissions 62
scalar OsgEarthNet.uav[42] utilizationCountManeuversMission 1272
scalar OsgEarthNet.uav[42] utilizationCountManeuversMaintenance 124
scalar OsgEarthNet.uav[42] utilizationCountChargeState 62
scalar OsgEarthNet.uav[42] utilizationCountOverdrawnAfterMission 0
scalar OsgEarthNet.uav[42] utilizationCountIdleState 11
scalar OsgEarthNet.uav[42] utilizationFail 0
scalar OsgEarthNet.uav[42] simulationTime 259200
scalar OsgEarthNet.uav[43] utilizationSecMission 19246.876678383
scalar OsgEarthNet.uav[43] utilizationSecMaintenance 12590.411246398
scalar OsgEarthNet.uav[43] utilizationSecCharge 117710.69007522
scalar OsgEarthNet.uav[43] utilizationSecIdle 109652.021
scalar OsgEarthNet.uav[43] utilizationEnergyMission 94092.257030487
scalar OsgEarthNet.uav[43] utilizationEnergyMaintenance 59347.81337738
scalar OsgEarthNet.uav[43] utilizationEnergyCharge 152341.29882812
scalar OsgEarthNet.uav[43] utilizationEnergyOverdrawMission 0
scalar OsgEarthNet.uav[43] utilizationEnergyOverdrawMaintenance 0
scalar OsgEarthNet.uav[43] utilizationCountMissions 34
scalar OsgEarthNet.uav[43] utilizationCountManeuversMission 676
scalar OsgEarthNet.uav[43] utilizationCountManeuversMaintenance 68
scalar OsgEarthNet.uav[43] utilizationCountChargeState 34
scalar OsgEarthNet.uav[43] utilizationCountOverdrawnAfterMission 0
scalar OsgEarthNet.uav[43] utilizationCountIdleState 34
scalar OsgEarthNet.uav[43] utilizationFail 0
scalar OsgEarthNet.uav[43] simulationTime 259200
scalar OsgEarthNet.uav[44] utilizationSecMission 19028.694573881
scalar OsgEarthNet.uav[44] utilizationSecMaintenance 12301.845392344
scalar OsgEarthNet.uav[44] utilizationSecCharge 117986.14263244
scalar OsgEarthNet.uav[44] utilizationSecIdle 109883.31640134
scalar OsgEarthNet.uav[44] utilizationEnergyMission 91765.162528992
scalar OsgEarthNet.uav[44] utilizationEnergyMaintenance 58579.397937775
scalar OsgEarthNet.uav[44] utilizationEnergyCharge 145613.60229492
scalar OsgEarthNet.uav[44] utilizationEnergyOverdrawMission 0
scalar OsgEarthNet.uav[44] utilizationEnergyOverdrawMaintenance 0
scalar OsgEarthNet.uav[44] utilizationCountMissions 38
scalar OsgEarthNet.uav[44] utilizationCountManeuversMission 557
scalar OsgEarthNet.uav[44] utilizationCountManeuversMaintenance 76
scalar OsgEarthNet.uav[44] utilizationCountChargeState 38
scalar OsgEarthNet.uav[44] utilizationCountOverdrawnAfterMission 0
scalar OsgEarthNet.uav[44] utilizationCountIdleState 38
scalar OsgEarthNet.uav[44] utilizationFail 0
scalar OsgEarthNet.uav[44] simulationTime 259200
scalar OsgEarthNet.uav[45] utilizationSecMission 41092.255933296
scalar OsgEarthNet.uav[45] utilizationSecMaintenance 18441.666262429
scalar OsgEarthNet.uav[45] utilizationSecCharge 198294.07580428
scalar OsgEarthNet.uav[45] utilizationSecIdle 1372.001
scalar OsgEarthNet.uav[45] utilizationEnergyMission 199046.25270081
scalar OsgEarthNet.uav[45] utilizationEnergyMaintenance 84547.651329041
scalar OsgEarthNet.uav[45] utilizationEnergyCharge 283433.23388672
scalar OsgEarthNet.uav[45] utilizationEnergyOverdrawMission 0
scalar OsgEarthNet.uav[45] utilizationEnergyOverdrawMaintenance 0
scalar OsgEarthNet.uav[45] utilizationCountMissions 62
scalar OsgEarthNet.uav[45] utilizationCountManeuversMission 1308
scalar OsgEarthNet.uav[45] utilizationCountManeuversMaintenance 124
scalar OsgEarthNet.uav[45] utilizationCountChargeState 62
scalar OsgEarthNet.uav[45] utilizationCountOverdrawnAfterMission 0
scalar OsgEarthNet.uav[45] utilizationCountIdleState 8
scalar OsgEarthNet.uav[45] utilizationFail 0
scalar OsgEarthNet.uav[45] simulationTime 259200
scalar OsgEarthNet.uav[46] utilizationSecMission 12072.674845387
scalar OsgEarthNet.uav[46] utilizationSecMaintenance 8055.3181546128
scalar OsgEarthNet.uav[46] utilizationSecCharge 74440
scalar OsgEarthNet.uav[46] utilizationSecIdle 164632.006
scalar OsgEarthNet.uav[46] utilizationEnergyMission 58527.454859918
scalar OsgEarthNet.uav[46] utilizationEnergyMaintenance 37988.269680023
scalar OsgEarthNet.uav[46] utilizationEnergyCharge 96424.009277344
scalar OsgEarthNet.uav[46] utilizationEnergyOverdrawMission 0
scalar OsgEarthNet.uav[46] utilizationEnergyOverdrawMaintenance 0
scalar OsgEarthNet.uav[46] utilizationCountMissions 21
scalar OsgEarthNet.uav[46] utilizationCountManeuversMission 406
scalar OsgEarthNet.uav[46] utilizationCountManeuversMaintenance 43
scalar OsgEarthNet.uav[46] utilizationCountChargeState 21
scalar OsgEarthNet.uav[46] utilizationCountOverdrawnAfterMission 0
scalar OsgEarthNet.uav[46] utilizationCountIdleState 22
scalar OsgEarthNet.uav[46] utilizationFail 0
scalar OsgEarthNet.uav[46] simulationTime 259200
scalar OsgEarthNet.uav[47] utilizationSecMission 26861.258670753
scalar OsgEarthNet.uav[47] utilizationSecMaintenance 15674.230202182
scalar OsgEarthNet.uav[47] utilizationSecCharge 156862.51012707
scalar OsgEarthNet.uav[47] utilizationSecIdle 59802
scalar OsgEarthNet.uav[47] utilizationEnergyMission 133337.94729233
scalar OsgEarthNet.uav[47] utilizationEnergyMaintenance 73142.810638428
scalar OsgEarthNet.uav[47] utilizationEnergyCharge 205796.01245117
scalar OsgEarthNet.uav[47] utilizationEnergyOverdrawMission 0
scalar OsgEarthNet.uav[47] utilizationEnergyOverdrawMaintenance 0
scalar OsgEarthNet.uav[47] utilizationCountMissions 47
scalar OsgEarthNet.uav[47] utilizationCountManeuversMission 929
scalar OsgEarthNet.uav[47] utilizationCountManeuversMaintenance 94
scalar OsgEarthNet.uav[47] utilizationCountChargeState 47
scalar OsgEarthNet.uav[47] utilizationCountOverdrawnAfterMission 0
scalar OsgEarthNet.uav[47] utilizationCountIdleState 33
scalar OsgEarthNet.uav[47] utilizationFail 0
scalar OsgEarthNet.uav[47] simulationTime 259200
scalar OsgEarthNet.uav[48] utilizationSecMission 40693.599480203
scalar OsgEarthNet.uav[48] utilizationSecMaintenance 19167.345112346
scalar OsgEarthNet.uav[48] utilizationSecCharge 196827.05240745
scalar OsgEarthNet.uav[48] utilizationSecIdle 2512.002
scalar OsgEarthNet.uav[48] utilizationEnergyMission 195958.3262291
scalar OsgEarthNet.uav[48] utilizationEnergyMaintenance 89847.710315704
scalar OsgEarthNet.uav[48] utilizationEnergyCharge 285897.12866211
scalar OsgEarthNet.uav[48] utilizationEnergyOverdrawMission 0
scalar OsgEarthNet.uav[48] utilizationEnergyOverdrawMaintenance 0
scalar OsgEarthNet.uav[48] utilizationCountMissions 63
scalar OsgEarthNet.uav[48] utilizationCountManeuversMission 1348
scalar OsgEarthNet.uav[48] utilizationCountManeuversMaintenance 126
scalar OsgEarthNet.uav[48] utilizationCountChargeState 63
scalar OsgEarthNet.uav[48] utilizationCountOverdrawnAfterMission 0
scalar OsgEarthNet.uav[48] utilizationCountIdleState 8
scalar OsgEarthNet.uav[48] utilizationFail 0
scalar OsgEarthNet.uav[48] simulationTime 259200
scalar OsgEarthNet.uav[49] utilizationSecMission 19290.627593865
scalar OsgEarthNet.uav[49] utilizationSecMaintenance 10004.744931477
scalar OsgEarthNet.uav[49] utilizationSecCharge 108730
scalar OsgEarthNet.uav[49] utilizationSecIdle 121174.62647466
scalar OsgEarthNet.uav[49] utilizationEnergyMission 93193.762332916
scalar OsgEarthNet.uav[49] utilizationEnergyMaintenance 47628.390239715
scalar OsgEarthNet.uav[49] utilizationEnergyCharge 140274.54052734
scalar OsgEarthNet.uav[49] utilizationEnergyOverdrawMission 0
scalar OsgEarthNet.uav[49] utilizationEnergyOverdrawMaintenance 0
scalar OsgEarthNet.uav[49] utilizationCountMissions 31
scalar OsgEarthNet.uav[49] utilizationCountManeuversMission 522
scalar OsgEarthNet.uav[49] utilizationCountManeuversMaintenance 62
scalar OsgEarthNet.uav[49] utilizationCountChargeState 31
scalar OsgEarthNet.uav[49] utilizationCountOverdrawnAfterMission 0
scalar OsgEarthNet.uav[49] utilizationCountIdleState 32
scalar OsgEarthNet.uav[49] utilizationFail 0
scalar OsgEarthNet.uav[49] simulationTime 259200
scalar OsgEarthNet.uav[50] utilizationSecMission 17415.259259393
scalar OsgEarthNet.uav[50] utilizationSecMaintenance 12522.55966505
scalar OsgEarthNet.uav[50] utilizationSecCharge 110840.16307556
scalar OsgEarthNet.uav[50] utilizationSecIdle 118422.017
scalar OsgEarthNet.uav[50] utilizationEnergyMission 86725.277957916
scalar OsgEarthNet.uav[50] utilizationEnergyMaintenance 59593.869457245
scalar OsgEarthNet.uav[50] utilizationEnergyCharge 143755.75244141
scalar OsgEarthNet.uav[50] utilizationEnergyOverdrawMission 0
scalar OsgEarthNet.uav[50] utilizationEnergyOverdrawMaintenance 0
scalar OsgEarthNet.uav[50] utilizationCountMissions 32
scalar OsgEarthNet.uav[50] utilizationCountManeuversMission 658
scalar OsgEarthNet.uav[50] utilizationCountManeuversMaintenance 64
scalar OsgEarthNet.uav[50] utilizationCountChargeState 32
scalar OsgEarthNet.uav[50] utilizationCountOverdrawnAfterMission 0
scalar OsgEarthNet.uav[50] utilizationCountIdleState 32
scalar OsgEarthNet.uav[50] utilizationFail 0
scalar OsgEarthNet.uav[50] simulationTime 259200
scalar OsgEarthNet.uav[51] utilizationSecMission 19452.839746265
scalar OsgEarthNet.uav[51] utilizationSecMaintenance 12790.714722726
scalar OsgEarthNet.uav[51] utilizationSecCharge 123720
scalar OsgEarthNet.uav[51] utilizationSecIdle 103236.44453101
scalar OsgEarthNet.uav[51] utilizationEnergyMission 95003.770343781
scalar OsgEarthNet.uav[51] utilizationEnergyMaintenance 60201.969612122
scalar OsgEarthNet.uav[51] utilizationEnergyCharge 156118.43603516
scalar OsgEarthNet.uav[51] utilizationEnergyOverdrawMission 0
scalar OsgEarthNet.uav[51] utilizationEnergyOverdrawMaintenance 0
scalar OsgEarthNet.uav[51] utilizationCountMissions 37
scalar OsgEarthNet.uav[51] utilizationCountManeuversMission 683
scalar OsgEarthNet.uav[51] utilizationCountManeuversMaintenance 74
scalar OsgEarthNet.uav[51] utilizationCountChargeState 37
scalar OsgEarthNet.uav[51] utilizationCountOverdrawnAfterMission 0
scalar OsgEarthNet.uav[51] utilizationCountIdleState 38
scalar OsgEarthNet.uav[51] utilizationFail 0
scalar OsgEarthNet.uav[51] simulationTime 259200
scalar OsgEarthNet.uav[52] utilizationSecMission 42105.242331531
scalar OsgEarthNet.uav[52] utilizationSecMaintenance 17462.756668469
scalar OsgEarthNet.uav[52] utilizationSecCharge 198450
scalar OsgEarthNet.uav[52] utilizationSecIdle 1182
scalar OsgEarthNet.uav[52] utilizationEnergyMission 202828.45624909
scalar OsgEarthNet.uav[52] utilizationEnergyMaintenance 80832.779125214
scalar OsgEarthNet.uav[52] utilizationEnergyCharge 283359.14794922
scalar OsgEarthNet.uav[52] utilizationEnergyOverdrawMission 0
scalar OsgEarthNet.uav[52] utilizationEnergyOverdrawMaintenance 0
scalar OsgEarthNet.uav[52] utilizationCountMissions 61
scalar OsgEarthNet.uav[52] utilizationCountManeuversMission 1230
scalar OsgEarthNet.uav[52] utilizationCountManeuversMaintenance 123
scalar OsgEarthNet.uav[52] utilizationCountChargeState 61
scalar OsgEarthNet.uav[52] utilizationCountOverdrawnAfterMission 0
scalar OsgEarthNet.uav[52] utilizationCountIdleState 8
scalar OsgEarthNet.uav[52] utilizationFail 0
scalar OsgEarthNet.uav[52] simulationTime 259200
scalar OsgEarthNet.uav[53] utilizationSecMission 16947.501830963
scalar OsgEarthNet.uav[53] utilizationSecMaintenance 10196.405737948
scalar OsgEarthNet.uav[53] utilizationSecCharge 99520.820839782
scalar OsgEarthNet.uav[53] utilizationSecIdle 132535.27059131
scalar OsgEarthNet.uav[53] utilizationEnergyMission 81020.640602112
scalar OsgEarthNet.uav[53] utilizationEnergyMaintenance 48442.786140442
scalar OsgEarthNet.uav[53] utilizationEnergyCharge 128998.86865234
scalar OsgEarthNet.uav[53] utilizationEnergyOverdrawMission 0
scalar OsgEarthNet.uav[53] utilizationEnergyOverdrawMaintenance 0
scalar OsgEarthNet.uav[53] utilizationCountMissions 29
scalar OsgEarthNet.uav[53] utilizationCountManeuversMission 535
scalar OsgEarthNet.uav[53] utilizationCountManeuversMaintenance 58
scalar OsgEarthNet.uav[53] utilizationCountChargeState 29
scalar OsgEarthNet.uav[53] utilizationCountOverdrawnAfterMission 0
scalar OsgEarthNet.uav[53] utilizationCountIdleState 29
scalar OsgEarthNet.uav[53] utilizationFail 0
scalar OsgEarthNet.uav[53] simulationTime 259200
scalar OsgEarthNet.uav[54] utilizationSecMission 21956.323519375
scalar OsgEarthNet.uav[54] utilizationSecMaintenance 14324.845237101
scalar OsgEarthNet.uav[54] utilizationSecCharge 138815.16206554
scalar OsgEarthNet.uav[54] utilizationSecIdle 84103.668177988
scalar OsgEarthNet.uav[54] utilizationEnergyMission 107776.8849411
scalar OsgEarthNet.uav[54] utilizationEnergyMaintenance 68520.320510864
scalar OsgEarthNet.uav[54] utilizationEnergyCharge 174563.40209961
scalar OsgEarthNet.uav[54] utilizationEnergyOverdrawMission 0
scalar OsgEarthNet.uav[54] utilizationEnergyOverdrawMaintenance 0
scalar OsgEarthNet.uav[54] utilizationCountMissions 43
scalar OsgEarthNet.uav[54] utilizationCountManeuversMission 687
scalar OsgEarthNet.uav[54] utilizationCountManeuversMaintenance 86
scalar OsgEarthNet.uav[54] utilizationCountChargeState 43
scalar OsgEarthNet.uav[54] utilizationCountOverdrawnAfterMission 0
scalar OsgEarthNet.uav[54] utilizationCountIdleState 43
scalar OsgEarthNet.uav[54] utilizationFail 0
scalar OsgEarthNet.uav[54] simulationTime 259200
scalar OsgEarthNet.uav[55] utilizationSecMission 41741.033542649
scalar OsgEarthNet.uav[55] utilizationSecMaintenance 18036.960457351
scalar OsgEarthNet.uav[55] utilizationSecCharge 195880
scalar OsgEarthNet.uav[55] utilizationSecIdle 3542.005
scalar OsgEarthNet.uav[55] utilizationEnergyMission 198430.23137283
scalar OsgEarthNet.uav[55] utilizationEnergyMaintenance 84047.353849508
scalar OsgEarthNet.uav[55] utilizationEnergyCharge 279200.12597656
scalar OsgEarthNet.uav[55] utilizationEnergyOverdrawMission 0
scalar OsgEarthNet.uav[55] utilizationEnergyOverdrawMaintenance 0
scalar OsgEarthNet.uav[55] utilizationCountMissions 62
scalar OsgEarthNet.uav[55] utilizationCountManeuversMission 1137
scalar OsgEarthNet.uav[55] utilizationCountManeuversMaintenance 124
scalar OsgEarthNet.uav[55] utilizationCountChargeState 61
scalar OsgEarthNet.uav[55] utilizationCountOverdrawnAfterMission 0
scalar OsgEarthNet.uav[55] utilizationCountIdleState 12
scalar OsgEarthNet.uav[55] utilizationFail 0
scalar OsgEarthNet.uav[55] simulationTime 259200
scalar OsgEarthNet.uav[56] utilizationSecMission 14503.125762901
scalar OsgEarthNet.uav[56] utilizationSecMaintenance 11431.29398558
scalar OsgEarthNet.uav[56] utilizationSecCharge 97910
scalar OsgEarthNet.uav[56] utilizationSecIdle 135355.57925152
scalar OsgEarthNet.uav[56] utilizationEnergyMission 70413.723976135
scalar OsgEarthNet.uav[56] utilizationEnergyMaintenance 54614.966293335
scalar OsgEarthNet.uav[56] utilizationEnergyCharge 125723.42333984
scalar OsgEarthNet.uav[56] utilizationEnergyOverdrawMission 0
scalar OsgEarthNet.uav[56] utilizationEnergyOverdrawMaintenance 0
scalar OsgEarthNet.uav[56] utilizationCountMissions 28
scalar OsgEarthNet.uav[56] utilizationCountManeuversMission 595
scalar OsgEarthNet.uav[56] utilizationCountManeuversMaintenance 56
scalar OsgEarthNet.uav[56] utilizationCountChargeState 28
scalar OsgEarthNet.uav[56] utilizationCountOverdrawnAfterMission 0
scalar OsgEarthNet.uav[56] utilizationCountIdleState 29
scalar OsgEarthNet.uav[56] utilizationFail 0
scalar OsgEarthNet.uav[56] simulationTime 259200
scalar OsgEarthNet.uav[57] utilizationSecMission 20967.150883121
scalar OsgEarthNet.uav[57] utilizationSecMaintenance 14633.309119589
scalar OsgEarthNet.uav[57] utilizationSecCharge 138060
scalar OsgEarthNet.uav[57] utilizationSecIdle 85539.53899729
scalar OsgEarthNet.uav[57] utilizationEnergyMission 103549.97486496
scalar OsgEarthNet.uav[57] utilizationEnergyMaintenance 69353.633354187
scalar OsgEarthNet.uav[57] utilizationEnergyCharge 172894.26245117
scalar OsgEarthNet.uav[57] utilizationEnergyOverdrawMission 0
scalar OsgEarthNet.uav[57] utilizationEnergyOverdrawMaintenance 0
scalar OsgEarthNet.uav[57] utilizationCountMissions 42
scalar OsgEarthNet.uav[57] utilizationCountManeuversMission 780
scalar OsgEarthNet.uav[57] utilizationCountManeuversMaintenance 84
scalar OsgEarthNet.uav[57] utilizationCountChargeState 42
scalar OsgEarthNet.uav[57] utilizationCountOverdrawnAfterMission 0
scalar OsgEarthNet.uav[57] utilizationCountIdleState 43
scalar OsgEarthNet.uav[57] utilizationFail 0
scalar OsgEarthNet.uav[57] simulationTime 259200
scalar OsgEarthNet.uav[58] utilizationSecMission 42762.790496704
scalar OsgEarthNet.uav[58] utilizationSecMaintenance 16353.154863786
scalar OsgEarthNet.uav[58] utilizationSecCharge 197222.60067758
scalar OsgEarthNet.uav[58] utilizationSecIdle 2861.4529619338
scalar OsgEarthNet.uav[58] utilizationEnergyMission 205426.34212875
scalar OsgEarthNet.uav[58] utilizationEnergyMaintenance 76305.756141663
scalar OsgEarthNet.uav[58] utilizationEnergyCharge 280748.17797852
scalar OsgEarthNet.uav[58] utilizationEnergyOverdrawMission 0
scalar OsgEarthNet.uav[58] utilizationEnergyOverdrawMaintenance 0
scalar OsgEarthNet.uav[58] utilizationCountMissions 61
scalar OsgEarthNet.uav[58] utilizationCountManeuversMission 1159
scalar OsgEarthNet.uav[58] utilizationCountManeuversMaintenance 122
scalar OsgEarthNet.uav[58] utilizationCountChargeState 61
scalar OsgEarthNet.uav[58] utilizationCountOverdrawnAfterMission 0
scalar OsgEarthNet.uav[58] utilizationCountIdleState 13
scalar OsgEarthNet.uav[58] utilizationFail 0
scalar OsgEarthNet.uav[58] simulationTime 259200
scalar OsgEarthNet.uav[59] utilizationSecMission 15366.876678383
scalar OsgEarthNet.uav[59] utilizationSecMaintenance 9185.6920755391
scalar OsgEarthNet.uav[59] utilizationSecCharge 88185.419246078
scalar OsgEarthNet.uav[59] utilizationSecIdle 146462.011
scalar OsgEarthNet.uav[59] utilizationEnergyMission 73536.620704651
scalar OsgEarthNet.uav[59] utilizationEnergyMaintenance 43882.378135681
scalar OsgEarthNet.uav[59] utilizationEnergyCharge 113824.4956665
scalar OsgEarthNet.uav[59] utilizationEnergyOverdrawMission 0
scalar OsgEarthNet.uav[59] utilizationEnergyOverdrawMaintenance 0
scalar OsgEarthNet.uav[59] utilizationCountMissions 26
scalar OsgEarthNet.uav[59] utilizationCountManeuversMission 482
scalar OsgEarthNet.uav[59] utilizationCountManeuversMaintenance 52
scalar OsgEarthNet.uav[59] utilizationCountChargeState 26
scalar OsgEarthNet.uav[59] utilizationCountOverdrawnAfterMission 0
scalar OsgEarthNet.uav[59] utilizationCountIdleState 26
scalar OsgEarthNet.uav[59] utilizationFail 0
scalar OsgEarthNet.uav[59] simulationTime 259200
scalar OsgEarthNet.uav[60] utilizationSecMission 14285.001220642
scalar OsgEarthNet.uav[60] utilizationSecMaintenance 9773.6939817409
scalar OsgEarthNet.uav[60] utilizationSecCharge 90069.293797617
scalar OsgEarthNet.uav[60] utilizationSecIdle 145072.01
scalar OsgEarthNet.uav[60] utilizationEnergyMission 70930.505565643
scalar OsgEarthNet.uav[60] utilizationEnergyMaintenance 46318.035667419
scalar OsgEarthNet.uav[60] utilizationEnergyCharge 117195.984375
scalar OsgEarthNet.uav[60] utilizationEnergyOverdrawMission 0
scalar OsgEarthNet.uav[60] utilizationEnergyOverdrawMaintenance 0
scalar OsgEarthNet.uav[60] utilizationCountMissions 26
scalar OsgEarthNet.uav[60] utilizationCountManeuversMission 506
scalar OsgEarthNet.uav[60] utilizationCountManeuversMaintenance 52
scalar OsgEarthNet.uav[60] utilizationCountChargeState 26
scalar OsgEarthNet.uav[60] utilizationCountOverdrawnAfterMission 0
scalar OsgEarthNet.uav[60] utilizationCountIdleState 26
scalar OsgEarthNet.uav[60] utilizationFail 0
scalar OsgEarthNet.uav[60] simulationTime 259200
scalar OsgEarthNet.uav[61] utilizationSecMission 19215.07108646
scalar OsgEarthNet.uav[61] utilizationSecMaintenance 14857.588599333
scalar OsgEarthNet.uav[61] utilizationSecCharge 133955.33731421
scalar OsgEarthNet.uav[61] utilizationSecIdle 91172.002
scalar OsgEarthNet.uav[61] utilizationEnergyMission 95266.947063446
scalar OsgEarthNet.uav[61] utilizationEnergyMaintenance 70064.325466156
scalar OsgEarthNet.uav[61] utilizationEnergyCharge 163672.38696289
scalar OsgEarthNet.uav[61] utilizationEnergyOverdrawMission 0
scalar OsgEarthNet.uav[61] utilizationEnergyOverdrawMaintenance 0
scalar OsgEarthNet.uav[61] utilizationCountMissions 44
scalar OsgEarthNet.uav[61] utilizationCountManeuversMission 683
scalar OsgEarthNet.uav[61] utilizationCountManeuversMaintenance 88
scalar OsgEarthNet.uav[61] utilizationCountChargeState 44
scalar OsgEarthNet.uav[61] utilizationCountOverdrawnAfterMission 0
scalar OsgEarthNet.uav[61] utilizationCountIdleState 44
scalar OsgEarthNet.uav[61] utilizationFail 0
scalar OsgEarthNet.uav[61] simulationTime 259200
scalar OsgEarthNet.uav[62] utilizationSecMission 40308.281299759
scalar OsgEarthNet.uav[62] utilizationSecMaintenance 18762.292352951
scalar OsgEarthNet.uav[62] utilizationSecCharge 198210
scalar OsgEarthNet.uav[62] utilizationSecIdle 1919.4253472904
scalar OsgEarthNet.uav[62] utilizationEnergyMission 197129.60074461
scalar OsgEarthNet.uav[62] utilizationEnergyMaintenance 87417.741413116
scalar OsgEarthNet.uav[62] utilizationEnergyCharge 284095.22021484
scalar OsgEarthNet.uav[62] utilizationEnergyOverdrawMission 0
scalar OsgEarthNet.uav[62] utilizationEnergyOverdrawMaintenance 0
scalar OsgEarthNet.uav[62] utilizationCountMissions 62
scalar OsgEarthNet.uav[62] utilizationCountManeuversMission 1319
scalar OsgEarthNet.uav[62] utilizationCountManeuversMaintenance 125
scalar OsgEarthNet.uav[62] utilizationCountChargeState 62
scalar OsgEarthNet.uav[62] utilizationCountOverdrawnAfterMission 0
scalar OsgEarthNet.uav[62] utilizationCountIdleState 8
scalar OsgEarthNet.uav[62] utilizationFail 0
scalar OsgEarthNet.uav[62] simulationTime 259200
scalar OsgEarthNet.uav[63] utilizationSecMission 16046.251525803
scalar OsgEarthNet.uav[63] utilizationSecMaintenance 10160.066402014
scalar OsgEarthNet.uav[63] utilizationSecCharge 94461.662072184
scalar OsgEarthNet.uav[63] utilizationSecIdle 138532.019
scalar OsgEarthNet.uav[63] utilizationEnergyMission 77546.78030014
scalar OsgEarthNet.uav[63] utilizationEnergyMaintenance 48559.484481811
scalar OsgEarthNet.uav[63] utilizationEnergyCharge 121828.09790039
scalar OsgEarthNet.uav[63] utilizationEnergyOverdrawMission 0
scalar OsgEarthNet.uav[63] utilizationEnergyOverdrawMaintenance 0
scalar OsgEarthNet.uav[63] utilizationCountMissions 28
scalar OsgEarthNet.uav[63] utilizationCountManeuversMission 542
scalar OsgEarthNet.uav[63] utilizationCountManeuversMaintenance 56
scalar OsgEarthNet.uav[63] utilizationCountChargeState 28
scalar OsgEarthNet.uav[63] utilizationCountOverdrawnAfterMission 0
scalar OsgEarthNet.uav[63] utilizationCountIdleState 28
scalar OsgEarthNet.uav[63] utilizationFail 0
scalar OsgEarthNet.uav[63] simulationTime 259200
scalar OsgEarthNet.uav[64] utilizationSecMission 22718.430877603
scalar OsgEarthNet.uav[64] utilizationSecMaintenance 15046.4775296
scalar OsgEarthNet.uav[64] utilizationSecCharge 144633.0905928
scalar OsgEarthNet.uav[64] utilizationSecIdle 76802
scalar OsgEarthNet.uav[64] utilizationEnergyMission 110510.40563965
scalar OsgEarthNet.uav[64] utilizationEnergyMaintenance 71564.737464905
scalar OsgEarthNet.uav[64] utilizationEnergyCharge 179465.12768555
scalar OsgEarthNet.uav[64] utilizationEnergyOverdrawMission 0
scalar OsgEarthNet.uav[64] utilizationEnergyOverdrawMaintenance 0
scalar OsgEarthNet.uav[64] utilizationCountMissions 46
scalar OsgEarthNet.uav[64] utilizationCountManeuversMission 701
scalar OsgEarthNet.uav[64] utilizationCountManeuversMaintenance 91
scalar OsgEarthNet.uav[64] utilizationCountChargeState 46
scalar OsgEarthNet.uav[64] utilizationCountOverdrawnAfterMission 0
scalar OsgEarthNet.uav[64] utilizationCountIdleState 46
scalar OsgEarthNet.uav[64] utilizationFail 0
scalar OsgEarthNet.uav[64] simulationTime 259200
scalar OsgEarthNet.uav[65] utilizationSecMission 41679.87666392
scalar OsgEarthNet.uav[65] utilizationSecMaintenance 17603.542929222
scalar OsgEarthNet.uav[65] utilizationSecCharge 196374.57540686
[...]
scalar OsgEarthNet.uav[76] utilizationCountMissions 28
scalar OsgEarthNet.uav[76] utilizationCountManeuversMission 521
scalar OsgEarthNet.uav[76] utilizationCountManeuversMaintenance 56
scalar OsgEarthNet.uav[76] utilizationCountChargeState 28
scalar OsgEarthNet.uav[76] utilizationCountOverdrawnAfterMission 0
scalar OsgEarthNet.uav[76] utilizationCountIdleState 28
scalar OsgEarthNet.uav[76] utilizationFail 0
scalar OsgEarthNet.uav[76] simulationTime 259200
scalar OsgEarthNet.uav[77] utilizationSecMission 23160.346349879
scalar OsgEarthNet.uav[77] utilizationSecMaintenance 15683.234621853
scalar OsgEarthNet.uav[77] utilizationSecCharge 147794.40902827
scalar OsgEarthNet.uav[77] utilizationSecIdle 72562.009
scalar OsgEarthNet.uav[77] utilizationEnergyMission 115909.96933746
scalar OsgEarthNet.uav[77] utilizationEnergyMaintenance 74386.201961517
scalar OsgEarthNet.uav[77] utilizationEnergyCharge 188209.66967773
scalar OsgEarthNet.uav[77] utilizationEnergyOverdrawMission 0
scalar OsgEarthNet.uav[77] utilizationEnergyOverdrawMaintenance 0
scalar OsgEarthNet.uav[77] utilizationCountMissions 44
scalar OsgEarthNet.uav[77] utilizationCountManeuversMission 905
scalar OsgEarthNet.uav[77] utilizationCountManeuversMaintenance 88
scalar OsgEarthNet.uav[77] utilizationCountChargeState 44
scalar OsgEarthNet.uav[77] utilizationCountOverdrawnAfterMission 0
scalar OsgEarthNet.uav[77] utilizationCountIdleState 44
scalar OsgEarthNet.uav[77] utilizationFail 0
scalar OsgEarthNet.uav[77] simulationTime 259200
scalar OsgEarthNet.uav[78] utilizationSecMission 41825.382400898
scalar OsgEarthNet.uav[78] utilizationSecMaintenance 17257.068128259
scalar OsgEarthNet.uav[78] utilizationSecCharge 196683.45381749
scalar OsgEarthNet.uav[78] utilizationSecIdle 3434.0946533515
scalar OsgEarthNet.uav[78] utilizationEnergyMission 202892.28613663
scalar OsgEarthNet.uav[78] utilizationEnergyMaintenance 79759.538230896
scalar OsgEarthNet.uav[78] utilizationEnergyCharge 280888.07910156
scalar OsgEarthNet.uav[78] utilizationEnergyOverdrawMission 0
scalar OsgEarthNet.uav[78] utilizationEnergyOverdrawMaintenance 0
scalar OsgEarthNet.uav[78] utilizationCountMissions 61
scalar OsgEarthNet.uav[78] utilizationCountManeuversMission 1299
scalar OsgEarthNet.uav[78] utilizationCountManeuversMaintenance 122
scalar OsgEarthNet.uav[78] utilizationCountChargeState 61
scalar OsgEarthNet.uav[78] utilizationCountOverdrawnAfterMission 0
scalar OsgEarthNet.uav[78] utilizationCountIdleState 7
scalar OsgEarthNet.uav[78] utilizationFail 0
scalar OsgEarthNet.uav[78] simulationTime 259200
scalar OsgEarthNet.uav[79] utilizationSecMission 18197.243792213
scalar OsgEarthNet.uav[79] utilizationSecMaintenance 11387.026953775
scalar OsgEarthNet.uav[79] utilizationSecCharge 111423.72425401
scalar OsgEarthNet.uav[79] utilizationSecIdle 118192.004
scalar OsgEarthNet.uav[79] utilizationEnergyMission 91130.707706451
scalar OsgEarthNet.uav[79] utilizationEnergyMaintenance 54081.23815918
scalar OsgEarthNet.uav[79] utilizationEnergyCharge 143518.91503906
scalar OsgEarthNet.uav[79] utilizationEnergyOverdrawMission 0
scalar OsgEarthNet.uav[79] utilizationEnergyOverdrawMaintenance 0
scalar OsgEarthNet.uav[79] utilizationCountMissions 32
scalar OsgEarthNet.uav[79] utilizationCountManeuversMission 602
scalar OsgEarthNet.uav[79] utilizationCountManeuversMaintenance 64
scalar OsgEarthNet.uav[79] utilizationCountChargeState 32
scalar OsgEarthNet.uav[79] utilizationCountOverdrawnAfterMission 0
scalar OsgEarthNet.uav[79] utilizationCountIdleState 32
scalar OsgEarthNet.uav[79] utilizationFail 0
scalar OsgEarthNet.uav[79] simulationTime 259200
scalar OsgEarthNet.uav[80] utilizationSecMission 18027.501830963
scalar OsgEarthNet.uav[80] utilizationSecMaintenance 11255.972515043
scalar OsgEarthNet.uav[80] utilizationSecCharge 108890
scalar OsgEarthNet.uav[80] utilizationSecIdle 121026.52465399
scalar OsgEarthNet.uav[80] utilizationEnergyMission 87827.034980774
scalar OsgEarthNet.uav[80] utilizationEnergyMaintenance 53364.839282989
scalar OsgEarthNet.uav[80] utilizationEnergyCharge 140296.10205078
scalar OsgEarthNet.uav[80] utilizationEnergyOverdrawMission 0
scalar OsgEarthNet.uav[80] utilizationEnergyOverdrawMaintenance 0
scalar OsgEarthNet.uav[80] utilizationCountMissions 31
scalar OsgEarthNet.uav[80] utilizationCountManeuversMission 589
scalar OsgEarthNet.uav[80] utilizationCountManeuversMaintenance 62
scalar OsgEarthNet.uav[80] utilizationCountChargeState 31
scalar OsgEarthNet.uav[80] utilizationCountOverdrawnAfterMission 0
scalar OsgEarthNet.uav[80] utilizationCountIdleState 32
scalar OsgEarthNet.uav[80] utilizationFail 0
scalar OsgEarthNet.uav[80] simulationTime 259200
scalar OsgEarthNet.uav[81] utilizationSecMission 23418.446938626
scalar OsgEarthNet.uav[81] utilizationSecMaintenance 15551.860477382
scalar OsgEarthNet.uav[81] utilizationSecCharge 150352.37550216
scalar OsgEarthNet.uav[81] utilizationSecIdle 69877.316081831
scalar OsgEarthNet.uav[81] utilizationEnergyMission 111445.47071075
scalar OsgEarthNet.uav[81] utilizationEnergyMaintenance 73614.707794189
scalar OsgEarthNet.uav[81] utilizationEnergyCharge 186810.48242188
scalar OsgEarthNet.uav[81] utilizationEnergyOverdrawMission 0
scalar OsgEarthNet.uav[81] utilizationEnergyOverdrawMaintenance 0
scalar OsgEarthNet.uav[81] utilizationCountMissions 47
scalar OsgEarthNet.uav[81] utilizationCountManeuversMission 739
scalar OsgEarthNet.uav[81] utilizationCountManeuversMaintenance 94
scalar OsgEarthNet.uav[81] utilizationCountChargeState 47
scalar OsgEarthNet.uav[81] utilizationCountOverdrawnAfterMission 0
scalar OsgEarthNet.uav[81] utilizationCountIdleState 47
scalar OsgEarthNet.uav[81] utilizationFail 0
scalar OsgEarthNet.uav[81] simulationTime 259200
scalar OsgEarthNet.uav[82] utilizationSecMission 42447.952224247
scalar OsgEarthNet.uav[82] utilizationSecMaintenance 17805.729938871
scalar OsgEarthNet.uav[82] utilizationSecCharge 196104.31383688
scalar OsgEarthNet.uav[82] utilizationSecIdle 2842.003
scalar OsgEarthNet.uav[82] utilizationEnergyMission 205863.15592194
scalar OsgEarthNet.uav[82] utilizationEnergyMaintenance 81047.573204041
scalar OsgEarthNet.uav[82] utilizationEnergyCharge 282134.86157227
scalar OsgEarthNet.uav[82] utilizationEnergyOverdrawMission 0
scalar OsgEarthNet.uav[82] utilizationEnergyOverdrawMaintenance 0
scalar OsgEarthNet.uav[82] utilizationCountMissions 62
scalar OsgEarthNet.uav[82] utilizationCountManeuversMission 1323
scalar OsgEarthNet.uav[82] utilizationCountManeuversMaintenance 124
scalar OsgEarthNet.uav[82] utilizationCountChargeState 62
scalar OsgEarthNet.uav[82] utilizationCountOverdrawnAfterMission 0
scalar OsgEarthNet.uav[82] utilizationCountIdleState 8
scalar OsgEarthNet.uav[82] utilizationFail 0
scalar OsgEarthNet.uav[82] simulationTime 259200
scalar OsgEarthNet.uav[83] utilizationSecMission 18007.610906043
scalar OsgEarthNet.uav[83] utilizationSecMaintenance 10728.473030512
scalar OsgEarthNet.uav[83] utilizationSecCharge 108470
scalar OsgEarthNet.uav[83] utilizationSecIdle 121993.91506345
scalar OsgEarthNet.uav[83] utilizationEnergyMission 87548.159671783
scalar OsgEarthNet.uav[83] utilizationEnergyMaintenance 50619.864105224
scalar OsgEarthNet.uav[83] utilizationEnergyCharge 139667.83837891
scalar OsgEarthNet.uav[83] utilizationEnergyOverdrawMission 0
scalar OsgEarthNet.uav[83] utilizationEnergyOverdrawMaintenance 0
scalar OsgEarthNet.uav[83] utilizationCountMissions 31
scalar OsgEarthNet.uav[83] utilizationCountManeuversMission 571
scalar OsgEarthNet.uav[83] utilizationCountManeuversMaintenance 62
scalar OsgEarthNet.uav[83] utilizationCountChargeState 31
scalar OsgEarthNet.uav[83] utilizationCountOverdrawnAfterMission 0
scalar OsgEarthNet.uav[83] utilizationCountIdleState 32
scalar OsgEarthNet.uav[83] utilizationFail 0
scalar OsgEarthNet.uav[83] simulationTime 259200
scalar OsgEarthNet.uav[84] utilizationSecMission 21425.746742377
scalar OsgEarthNet.uav[84] utilizationSecMaintenance 14385.6604697
scalar OsgEarthNet.uav[84] utilizationSecCharge 138710.23818504
scalar OsgEarthNet.uav[84] utilizationSecIdle 84678.353602879
scalar OsgEarthNet.uav[84] utilizationEnergyMission 105644.2587738
scalar OsgEarthNet.uav[84] utilizationEnergyMaintenance 68329.996688843
scalar OsgEarthNet.uav[84] utilizationEnergyCharge 173435.48779297
scalar OsgEarthNet.uav[84] utilizationEnergyOverdrawMission 0
scalar OsgEarthNet.uav[84] utilizationEnergyOverdrawMaintenance 0
scalar OsgEarthNet.uav[84] utilizationCountMissions 43
scalar OsgEarthNet.uav[84] utilizationCountManeuversMission 699
scalar OsgEarthNet.uav[84] utilizationCountManeuversMaintenance 86
scalar OsgEarthNet.uav[84] utilizationCountChargeState 43
scalar OsgEarthNet.uav[84] utilizationCountOverdrawnAfterMission 0
scalar OsgEarthNet.uav[84] utilizationCountIdleState 43
scalar OsgEarthNet.uav[84] utilizationFail 0
scalar OsgEarthNet.uav[84] simulationTime 259200
scalar OsgEarthNet.uav[85] utilizationSecMission 41561.345413893
scalar OsgEarthNet.uav[85] utilizationSecMaintenance 18596.658565446
scalar OsgEarthNet.uav[85] utilizationSecCharge 196462.36394
scalar OsgEarthNet.uav[85] utilizationSecIdle 2579.6310806652
scalar OsgEarthNet.uav[85] utilizationEnergyMission 201728.65890503
scalar OsgEarthNet.uav[85] utilizationEnergyMaintenance 86089.549163818
scalar OsgEarthNet.uav[85] utilizationEnergyCharge 283913.20068359
scalar OsgEarthNet.uav[85] utilizationEnergyOverdrawMission 0
scalar OsgEarthNet.uav[85] utilizationEnergyOverdrawMaintenance 0
scalar OsgEarthNet.uav[85] utilizationCountMissions 63
scalar OsgEarthNet.uav[85] utilizationCountManeuversMission 1258
scalar OsgEarthNet.uav[85] utilizationCountManeuversMaintenance 126
scalar OsgEarthNet.uav[85] utilizationCountChargeState 63
scalar OsgEarthNet.uav[85] utilizationCountOverdrawnAfterMission 0
scalar OsgEarthNet.uav[85] utilizationCountIdleState 11
scalar OsgEarthNet.uav[85] utilizationFail 0
scalar OsgEarthNet.uav[85] simulationTime 259200
scalar OsgEarthNet.uav[86] utilizationSecMission 17707.501830963
scalar OsgEarthNet.uav[86] utilizationSecMaintenance 10993.870549136
scalar OsgEarthNet.uav[86] utilizationSecCharge 108200
scalar OsgEarthNet.uav[86] utilizationSecIdle 122298.6266199
scalar OsgEarthNet.uav[86] utilizationEnergyMission 85739.926734924
scalar OsgEarthNet.uav[86] utilizationEnergyMaintenance 52656.506061554
scalar OsgEarthNet.uav[86] utilizationEnergyCharge 139324.47558594
scalar OsgEarthNet.uav[86] utilizationEnergyOverdrawMission 0
scalar OsgEarthNet.uav[86] utilizationEnergyOverdrawMaintenance 0
scalar OsgEarthNet.uav[86] utilizationCountMissions 31
scalar OsgEarthNet.uav[86] utilizationCountManeuversMission 573
scalar OsgEarthNet.uav[86] utilizationCountManeuversMaintenance 62
scalar OsgEarthNet.uav[86] utilizationCountChargeState 31
scalar OsgEarthNet.uav[86] utilizationCountOverdrawnAfterMission 0
scalar OsgEarthNet.uav[86] utilizationCountIdleState 32
scalar OsgEarthNet.uav[86] utilizationFail 0
scalar OsgEarthNet.uav[86] simulationTime 259200
scalar OsgEarthNet.uav[87] utilizationSecMission 24235.912706848
scalar OsgEarthNet.uav[87] utilizationSecMaintenance 16958.727127445
scalar OsgEarthNet.uav[87] utilizationSecCharge 158910.74727619
scalar OsgEarthNet.uav[87] utilizationSecIdle 59094.611889516
scalar OsgEarthNet.uav[87] utilizationEnergyMission 117305.20185852
scalar OsgEarthNet.uav[87] utilizationEnergyMaintenance 80961.856960297
scalar OsgEarthNet.uav[87] utilizationEnergyCharge 193938.08032227
scalar OsgEarthNet.uav[87] utilizationEnergyOverdrawMission 0
scalar OsgEarthNet.uav[87] utilizationEnergyOverdrawMaintenance 0
scalar OsgEarthNet.uav[87] utilizationCountMissions 52
scalar OsgEarthNet.uav[87] utilizationCountManeuversMission 756
scalar OsgEarthNet.uav[87] utilizationCountManeuversMaintenance 104
scalar OsgEarthNet.uav[87] utilizationCountChargeState 52
scalar OsgEarthNet.uav[87] utilizationCountOverdrawnAfterMission 0
scalar OsgEarthNet.uav[87] utilizationCountIdleState 52
scalar OsgEarthNet.uav[87] utilizationFail 0
scalar OsgEarthNet.uav[87] simulationTime 259200
scalar OsgEarthNet.uav[88] utilizationSecMission 43468.261208501
scalar OsgEarthNet.uav[88] utilizationSecMaintenance 17503.087209116
scalar OsgEarthNet.uav[88] utilizationSecCharge 196936.65058238
scalar OsgEarthNet.uav[88] utilizationSecIdle 1292
scalar OsgEarthNet.uav[88] utilizationEnergyMission 206277.24650998
scalar OsgEarthNet.uav[88] utilizationEnergyMaintenance 80960.978843689
scalar OsgEarthNet.uav[88] utilizationEnergyCharge 283061.58361816
scalar OsgEarthNet.uav[88] utilizationEnergyOverdrawMission 0
scalar OsgEarthNet.uav[88] utilizationEnergyOverdrawMaintenance 0
scalar OsgEarthNet.uav[88] utilizationCountMissions 62
scalar OsgEarthNet.uav[88] utilizationCountManeuversMission 1116
scalar OsgEarthNet.uav[88] utilizationCountManeuversMaintenance 123
scalar OsgEarthNet.uav[88] utilizationCountChargeState 62
scalar OsgEarthNet.uav[88] utilizationCountOverdrawnAfterMission 0
scalar OsgEarthNet.uav[88] utilizationCountIdleState 10
scalar OsgEarthNet.uav[88] utilizationFail 0
scalar OsgEarthNet.uav[88] simulationTime 259200
scalar OsgEarthNet.uav[89] utilizationSecMission 18068.752136124
scalar OsgEarthNet.uav[89] utilizationSecMaintenance 10393.606408769
scalar OsgEarthNet.uav[89] utilizationSecCharge 105890
scalar OsgEarthNet.uav[89] utilizationSecIdle 124847.64045511
scalar OsgEarthNet.uav[89] utilizationEnergyMission 85987.923439026
scalar OsgEarthNet.uav[89] utilizationEnergyMaintenance 49426.909187317
scalar OsgEarthNet.uav[89] utilizationEnergyCharge 136363.83203125
scalar OsgEarthNet.uav[89] utilizationEnergyOverdrawMission 0
scalar OsgEarthNet.uav[89] utilizationEnergyOverdrawMaintenance 0
scalar OsgEarthNet.uav[89] utilizationCountMissions 30
scalar OsgEarthNet.uav[89] utilizationCountManeuversMission 539
scalar OsgEarthNet.uav[89] utilizationCountManeuversMaintenance 60
scalar OsgEarthNet.uav[89] utilizationCountChargeState 30
scalar OsgEarthNet.uav[89] utilizationCountOverdrawnAfterMission 0
scalar OsgEarthNet.uav[89] utilizationCountIdleState 31
scalar OsgEarthNet.uav[89] utilizationFail 0
scalar OsgEarthNet.uav[89] simulationTime 259200
scalar OsgEarthNet.uav[90] utilizationSecMission 17898.385022294
scalar OsgEarthNet.uav[90] utilizationSecMaintenance 10618.601914234
scalar OsgEarthNet.uav[90] utilizationSecCharge 106010
scalar OsgEarthNet.uav[90] utilizationSecIdle 124673.01206347
scalar OsgEarthNet.uav[90] utilizationEnergyMission 88439.852561951
scalar OsgEarthNet.uav[90] utilizationEnergyMaintenance 50529.532611847
scalar OsgEarthNet.uav[90] utilizationEnergyCharge 136922.30419922
scalar OsgEarthNet.uav[90] utilizationEnergyOverdrawMission 0
scalar OsgEarthNet.uav[90] utilizationEnergyOverdrawMaintenance 0
scalar OsgEarthNet.uav[90] utilizationCountMissions 30
scalar OsgEarthNet.uav[90] utilizationCountManeuversMission 552
scalar OsgEarthNet.uav[90] utilizationCountManeuversMaintenance 60
scalar OsgEarthNet.uav[90] utilizationCountChargeState 30
scalar OsgEarthNet.uav[90] utilizationCountOverdrawnAfterMission 0
scalar OsgEarthNet.uav[90] utilizationCountIdleState 31
scalar OsgEarthNet.uav[90] utilizationFail 0
scalar OsgEarthNet.uav[90] simulationTime 259200
scalar OsgEarthNet.uav[91] utilizationSecMission 22367.083633274
scalar OsgEarthNet.uav[91] utilizationSecMaintenance 13955.011509973
scalar OsgEarthNet.uav[91] utilizationSecCharge 140525.89385675
scalar OsgEarthNet.uav[91] utilizationSecIdle 82352.01
scalar OsgEarthNet.uav[91] utilizationEnergyMission 107330.77148056
scalar OsgEarthNet.uav[91] utilizationEnergyMaintenance 67319.816043854
scalar OsgEarthNet.uav[91] utilizationEnergyCharge 175603.58300781
scalar OsgEarthNet.uav[91] utilizationEnergyOverdrawMission 0
scalar OsgEarthNet.uav[91] utilizationEnergyOverdrawMaintenance 0
scalar OsgEarthNet.uav[91] utilizationCountMissions 43
scalar OsgEarthNet.uav[91] utilizationCountManeuversMission 643
scalar OsgEarthNet.uav[91] utilizationCountManeuversMaintenance 86
scalar OsgEarthNet.uav[91] utilizationCountChargeState 43
scalar OsgEarthNet.uav[91] utilizationCountOverdrawnAfterMission 0
scalar OsgEarthNet.uav[91] utilizationCountIdleState 43
scalar OsgEarthNet.uav[91] utilizationFail 0
scalar OsgEarthNet.uav[91] simulationTime 259200
scalar OsgEarthNet.uav[92] utilizationSecMission 42880.928022461
scalar OsgEarthNet.uav[92] utilizationSecMaintenance 17467.11946005
scalar OsgEarthNet.uav[92] utilizationSecCharge 197679.95151749
scalar OsgEarthNet.uav[92] utilizationSecIdle 1172
scalar OsgEarthNet.uav[92] utilizationEnergyMission 206344.8307991
scalar OsgEarthNet.uav[92] utilizationEnergyMaintenance 81635.984992981
scalar OsgEarthNet.uav[92] utilizationEnergyCharge 283264.06011963
scalar OsgEarthNet.uav[92] utilizationEnergyOverdrawMission 0
scalar OsgEarthNet.uav[92] utilizationEnergyOverdrawMaintenance 0
scalar OsgEarthNet.uav[92] utilizationCountMissions 62
scalar OsgEarthNet.uav[92] utilizationCountManeuversMission 1137
scalar OsgEarthNet.uav[92] utilizationCountManeuversMaintenance 124
scalar OsgEarthNet.uav[92] utilizationCountChargeState 62
scalar OsgEarthNet.uav[92] utilizationCountOverdrawnAfterMission 0
scalar OsgEarthNet.uav[92] utilizationCountIdleState 8
scalar OsgEarthNet.uav[92] utilizationFail 0
scalar OsgEarthNet.uav[92] simulationTime 259200
scalar OsgEarthNet.uav[93] utilizationSecMission 16547.501830963
scalar OsgEarthNet.uav[93] utilizationSecMaintenance 9826.3100125251
scalar OsgEarthNet.uav[93] utilizationSecCharge 98230
scalar OsgEarthNet.uav[93] utilizationSecIdle 134596.18715651
scalar OsgEarthNet.uav[93] utilizationEnergyMission 80614.981086731
scalar OsgEarthNet.uav[93] utilizationEnergyMaintenance 46655.233139038
scalar OsgEarthNet.uav[93] utilizationEnergyCharge 126472.39208984
scalar OsgEarthNet.uav[93] utilizationEnergyOverdrawMission 0
scalar OsgEarthNet.uav[93] utilizationEnergyOverdrawMaintenance 0
scalar OsgEarthNet.uav[93] utilizationCountMissions 28
scalar OsgEarthNet.uav[93] utilizationCountManeuversMission 515
scalar OsgEarthNet.uav[93] utilizationCountManeuversMaintenance 56
scalar OsgEarthNet.uav[93] utilizationCountChargeState 28
scalar OsgEarthNet.uav[93] utilizationCountOverdrawnAfterMission 0
scalar OsgEarthNet.uav[93] utilizationCountIdleState 29
scalar OsgEarthNet.uav[93] utilizationFail 0
scalar OsgEarthNet.uav[93] simulationTime 259200
scalar OsgEarthNet.uav[94] utilizationSecMission 30503.352209953
scalar OsgEarthNet.uav[94] utilizationSecMaintenance 16611.94109101
scalar OsgEarthNet.uav[94] utilizationSecCharge 169560
scalar OsgEarthNet.uav[94] utilizationSecIdle 42524.705699036
scalar OsgEarthNet.uav[94] utilizationEnergyMission 148581.46431351
scalar OsgEarthNet.uav[94] utilizationEnergyMaintenance 77922.962947716
scalar OsgEarthNet.uav[94] utilizationEnergyCharge 224688.2956543
scalar OsgEarthNet.uav[94] utilizationEnergyOverdrawMission 0
scalar OsgEarthNet.uav[94] utilizationEnergyOverdrawMaintenance 0
scalar OsgEarthNet.uav[94] utilizationCountMissions 52
scalar OsgEarthNet.uav[94] utilizationCountManeuversMission 955
scalar OsgEarthNet.uav[94] utilizationCountManeuversMaintenance 105
scalar OsgEarthNet.uav[94] utilizationCountChargeState 52
scalar OsgEarthNet.uav[94] utilizationCountOverdrawnAfterMission 0
scalar OsgEarthNet.uav[94] utilizationCountIdleState 32
scalar OsgEarthNet.uav[94] utilizationFail 0
scalar OsgEarthNet.uav[94] simulationTime 259200
scalar OsgEarthNet.cs[0] usedPower 4005279.3336123
scalar OsgEarthNet.cs[0] chargedPower 4005279.3336123
scalar OsgEarthNet.cs[0] chargedMobileNodes 876
scalar OsgEarthNet.cs[0] reservations 889
scalar OsgEarthNet.cs[1] usedPower 4150940.26584
scalar OsgEarthNet.cs[1] chargedPower 4150940.26584
scalar OsgEarthNet.cs[1] chargedMobileNodes 1033
scalar OsgEarthNet.cs[1] reservations 1047
scalar OsgEarthNet.cs[2] usedPower 8675855.4926621
scalar OsgEarthNet.cs[2] chargedPower 8675855.4926621
scalar OsgEarthNet.cs[2] chargedMobileNodes 286
scalar OsgEarthNet.cs[2] reservations 1902

