version 2
run Szenario_Hotel_Gabelbach-115-20180712-01:52:40-17784
attr configname Szenario_Hotel_Gabelbach
attr datetime 20180712-01:52:40
attr experiment Szenario_Hotel_Gabelbach
attr inifile omnetpp.ini
attr iterationvars "$replM=2, $biWeight=0.35, $replSearchM=1, $numUAVs=58"
attr iterationvarsf replM=2,biWeight=0.35,replSearchM=1,numUAVs=58-
attr measurement "$replM=2, $biWeight=0.35, $replSearchM=1, $numUAVs=58"
attr network OsgEarthNet
attr processid 17784
attr repetition 7
attr replication #7
attr resultdir results
attr runnumber 115
attr seedset 115
itervar biWeight 0.35
itervar numUAVs 58
itervar replM 2
itervar replSearchM 1
param *.osgEarthScene.scene "\"Szenario_Hotel_Gabelbach.earth\""
param *.playgroundLatitude 50.6830269
param *.playgroundLongitude 10.8538055
param *.playgroundWidth 3500m
param *.playgroundHeight 3500m
param *.cs[0].posX 3537m
param *.cs[0].posY 965m
param *.cs[0].posZ 538m
param *.cs[1].posX 312m
param *.cs[1].posY 1262m
param *.cs[1].posZ 539m
param *.cs[2].posX 2185m
param *.cs[2].posY 3026m
param *.cs[2].posZ 777m
param *.cs[3].posX 10m
param *.cs[3].posY 2200m
param *.cs[3].posZ 560m
param *.cs[4].posX 750m
param *.cs[4].posY 200m
param *.cs[4].posZ 540m
param *.cs[5].posX 2450m
param *.cs[5].posY 180m
param *.cs[5].posZ 524m
param *.cs[6].posX 3140m
param *.cs[6].posY 1790m
param *.cs[6].posZ 606m
param *.numCSs 3
param *.uav[*].replacementMethod 2
param *.uav[*].weightedSumWeight 0.35
param *.missionControl.replacementSearchMethod 1
param *.numUAVs 58
param *.numCSs 3
param *.numUAVs 100
param *.*.timeStep 10s
param *.uav[*].commandPreviewCommandCount 20
param *.missionControl.missionFiles "\"missions\\\\Szenario_WB_Hotel_Gabelbach_Mission_Hotel.waypoints,missions\\\\Szenario_WB_Hotel_Gabelbach_Mission_Kickelhahn.waypoints,missions\\\\Szenario_WB_Hotel_Gabelbach_Mission_Ilmenau_Sportplatz.waypoints,missions\\\\Szenario_WB_Hotel_Gabelbach_Mission_Manebach_Mitte.waypoints,missions\\\\Szenario_WB_Hotel_Gabelbach_Mission_Manebach_Sued.waypoints,missions\\\\Szenario_WB_Hotel_Gabelbach_Hover_HoheSchlaufe.waypoints,missions\\\\Szenario_WB_Hotel_Gabelbach_Hover_Kickelhahn.waypoints,missions\\\\Szenario_WB_Hotel_Gabelbach_Hover_Gabelbachskopf.waypoints,missions\\\\Szenario_WB_Hotel_Gabelbach_Hover_Dachskopf.waypoints\""
param *.uav[0].startX 3537m
param *.uav[0].startY 965m
param *.uav[0].startZ 539m
param *.uav[1].startX 312m
param *.uav[1].startY 1262m
param *.uav[1].startZ 540m
param *.uav[2].startX 2185m
param *.uav[2].startY 3026m
param *.uav[2].startZ 778m
param *.uav[3].startX 3537m
param *.uav[3].startY 965m
param *.uav[3].startZ 539m
param *.uav[4].startX 312m
param *.uav[4].startY 1262m
param *.uav[4].startZ 540m
param *.uav[5].startX 2185m
param *.uav[5].startY 3026m
param *.uav[5].startZ 778m
param *.uav[6].startX 3537m
param *.uav[6].startY 965m
param *.uav[6].startZ 539m
param *.uav[7].startX 312m
param *.uav[7].startY 1262m
param *.uav[7].startZ 540m
param *.uav[8].startX 2185m
param *.uav[8].startY 3026m
param *.uav[8].startZ 778m
param *.uav[9].startX 3537m
param *.uav[9].startY 965m
param *.uav[9].startZ 539m
param *.uav[10].startX 3537m
param *.uav[10].startY 965m
param *.uav[10].startZ 539m
param *.uav[11].startX 312m
param *.uav[11].startY 1262m
param *.uav[11].startZ 540m
param *.uav[12].startX 2185m
param *.uav[12].startY 3026m
param *.uav[12].startZ 778m
param *.uav[13].startX 3537m
param *.uav[13].startY 965m
param *.uav[13].startZ 539m
param *.uav[14].startX 312m
param *.uav[14].startY 1262m
param *.uav[14].startZ 540m
param *.uav[15].startX 2185m
param *.uav[15].startY 3026m
param *.uav[15].startZ 778m
param *.uav[16].startX 3537m
param *.uav[16].startY 965m
param *.uav[16].startZ 539m
param *.uav[17].startX 312m
param *.uav[17].startY 1262m
param *.uav[17].startZ 540m
param *.uav[18].startX 2185m
param *.uav[18].startY 3026m
param *.uav[18].startZ 778m
param *.uav[19].startX 3537m
param *.uav[19].startY 965m
param *.uav[19].startZ 539m
param *.uav[20].startX 3537m
param *.uav[20].startY 965m
param *.uav[20].startZ 539m
param *.uav[21].startX 312m
param *.uav[21].startY 1262m
param *.uav[21].startZ 540m
param *.uav[22].startX 2185m
param *.uav[22].startY 3026m
param *.uav[22].startZ 778m
param *.uav[23].startX 3537m
param *.uav[23].startY 965m
param *.uav[23].startZ 539m
param *.uav[24].startX 312m
param *.uav[24].startY 1262m
param *.uav[24].startZ 540m
param *.uav[25].startX 2185m
param *.uav[25].startY 3026m
param *.uav[25].startZ 778m
param *.uav[26].startX 3537m
param *.uav[26].startY 965m
param *.uav[26].startZ 539m
param *.uav[27].startX 312m
param *.uav[27].startY 1262m
param *.uav[27].startZ 540m
param *.uav[28].startX 2185m
param *.uav[28].startY 3026m
param *.uav[28].startZ 778m
param *.uav[29].startX 3537m
param *.uav[29].startY 965m
param *.uav[29].startZ 539m
param *.uav[30].startX 3537m
param *.uav[30].startY 965m
param *.uav[30].startZ 539m
param *.uav[31].startX 312m
param *.uav[31].startY 1262m
param *.uav[31].startZ 540m
param *.uav[32].startX 2185m
param *.uav[32].startY 3026m
param *.uav[32].startZ 778m
param *.uav[33].startX 3537m
param *.uav[33].startY 965m
param *.uav[33].startZ 539m
param *.uav[34].startX 312m
param *.uav[34].startY 1262m
param *.uav[34].startZ 540m
param *.uav[35].startX 2185m
param *.uav[35].startY 3026m
param *.uav[35].startZ 778m
param *.uav[36].startX 3537m
param *.uav[36].startY 965m
param *.uav[36].startZ 539m
param *.uav[37].startX 312m
param *.uav[37].startY 1262m
param *.uav[37].startZ 540m
param *.uav[38].startX 2185m
param *.uav[38].startY 3026m
param *.uav[38].startZ 778m
param *.uav[39].startX 3537m
param *.uav[39].startY 965m
param *.uav[39].startZ 539m
param *.uav[40].startX 3537m
param *.uav[40].startY 965m
param *.uav[40].startZ 539m
param *.uav[41].startX 312m
param *.uav[41].startY 1262m
param *.uav[41].startZ 540m
param *.uav[42].startX 2185m
param *.uav[42].startY 3026m
param *.uav[42].startZ 778m
param *.uav[43].startX 3537m
param *.uav[43].startY 965m
param *.uav[43].startZ 539m
param *.uav[44].startX 312m
param *.uav[44].startY 1262m
param *.uav[44].startZ 540m
param *.uav[45].startX 2185m
param *.uav[45].startY 3026m
param *.uav[45].startZ 778m
param *.uav[46].startX 3537m
param *.uav[46].startY 965m
param *.uav[46].startZ 539m
param *.uav[47].startX 312m
param *.uav[47].startY 1262m
param *.uav[47].startZ 540m
param *.uav[48].startX 2185m
param *.uav[48].startY 3026m
param *.uav[48].startZ 778m
param *.uav[49].startX 3537m
param *.uav[49].startY 965m
param *.uav[49].startZ 539m
param *.uav[50].startX 3537m
param *.uav[50].startY 965m
param *.uav[50].startZ 539m
param *.uav[51].startX 312m
param *.uav[51].startY 1262m
param *.uav[51].startZ 540m
param *.uav[52].startX 2185m
param *.uav[52].startY 3026m
param *.uav[52].startZ 778m
param *.uav[53].startX 3537m
param *.uav[53].startY 965m
param *.uav[53].startZ 539m
param *.uav[54].startX 312m
param *.uav[54].startY 1262m
param *.uav[54].startZ 540m
param *.uav[55].startX 2185m
param *.uav[55].startY 3026m
param *.uav[55].startZ 778m
param *.uav[56].startX 3537m
param *.uav[56].startY 965m
param *.uav[56].startZ 539m
param *.uav[57].startX 312m
param *.uav[57].startY 1262m
param *.uav[57].startZ 540m
param *.uav[58].startX 2185m
param *.uav[58].startY 3026m
param *.uav[58].startZ 778m
param *.uav[59].startX 3537m
param *.uav[59].startY 965m
param *.uav[59].startZ 539m
param *.uav[60].startX 3537m
param *.uav[60].startY 965m
param *.uav[60].startZ 539m
param *.uav[61].startX 312m
param *.uav[61].startY 1262m
param *.uav[61].startZ 540m
param *.uav[62].startX 2185m
param *.uav[62].startY 3026m
param *.uav[62].startZ 778m
param *.uav[63].startX 3537m
param *.uav[63].startY 965m
param *.uav[63].startZ 539m
param *.uav[64].startX 312m
param *.uav[64].startY 1262m
param *.uav[64].startZ 540m
param *.uav[65].startX 2185m
param *.uav[65].startY 3026m
param *.uav[65].startZ 778m
param *.uav[66].startX 3537m
param *.uav[66].startY 965m
param *.uav[66].startZ 539m
param *.uav[67].startX 312m
param *.uav[67].startY 1262m
param *.uav[67].startZ 540m
param *.uav[68].startX 2185m
param *.uav[68].startY 3026m
param *.uav[68].startZ 778m
param *.uav[69].startX 3537m
param *.uav[69].startY 965m
param *.uav[69].startZ 539m
param *.uav[70].startX 3537m
param *.uav[70].startY 965m
param *.uav[70].startZ 539m
param *.uav[71].startX 312m
param *.uav[71].startY 1262m
param *.uav[71].startZ 540m
param *.uav[72].startX 2185m
param *.uav[72].startY 3026m
param *.uav[72].startZ 778m
param *.uav[73].startX 3537m
param *.uav[73].startY 965m
param *.uav[73].startZ 539m
param *.uav[74].startX 312m
param *.uav[74].startY 1262m
param *.uav[74].startZ 540m
param *.uav[75].startX 2185m
param *.uav[75].startY 3026m
param *.uav[75].startZ 778m
param *.uav[76].startX 3537m
param *.uav[76].startY 965m
param *.uav[76].startZ 539m
param *.uav[77].startX 312m
param *.uav[77].startY 1262m
param *.uav[77].startZ 540m
param *.uav[78].startX 2185m
param *.uav[78].startY 3026m
param *.uav[78].startZ 778m
param *.uav[79].startX 3537m
param *.uav[79].startY 965m
param *.uav[79].startZ 539m
param *.uav[80].startX 3537m
param *.uav[80].startY 965m
param *.uav[80].startZ 539m
param *.uav[81].startX 312m
param *.uav[81].startY 1262m
param *.uav[81].startZ 540m
param *.uav[82].startX 2185m
param *.uav[82].startY 3026m
param *.uav[82].startZ 778m
param *.uav[83].startX 3537m
param *.uav[83].startY 965m
param *.uav[83].startZ 539m
param *.uav[84].startX 312m
param *.uav[84].startY 1262m
param *.uav[84].startZ 540m
param *.uav[85].startX 2185m
param *.uav[85].startY 3026m
param *.uav[85].startZ 778m
param *.uav[86].startX 3537m
param *.uav[86].startY 965m
param *.uav[86].startZ 539m
param *.uav[87].startX 312m
param *.uav[87].startY 1262m
param *.uav[87].startZ 540m
param *.uav[88].startX 2185m
param *.uav[88].startY 3026m
param *.uav[88].startZ 778m
param *.uav[89].startX 3537m
param *.uav[89].startY 965m
param *.uav[89].startZ 539m
param *.uav[90].startX 3537m
param *.uav[90].startY 965m
param *.uav[90].startZ 539m
param *.uav[91].startX 312m
param *.uav[91].startY 1262m
param *.uav[91].startZ 540m
param *.uav[92].startX 2185m
param *.uav[92].startY 3026m
param *.uav[92].startZ 778m
param *.uav[93].startX 3537m
param *.uav[93].startY 965m
param *.uav[93].startZ 539m
param *.uav[94].startX 312m
param *.uav[94].startY 1262m
param *.uav[94].startZ 540m
param *.uav[95].startX 2185m
param *.uav[95].startY 3026m
param *.uav[95].startZ 778m
param *.uav[96].startX 3537m
param *.uav[96].startY 965m
param *.uav[96].startZ 539m
param *.uav[97].startX 312m
param *.uav[97].startY 1262m
param *.uav[97].startZ 540m
param *.uav[98].startX 2185m
param *.uav[98].startY 3026m
param *.uav[98].startZ 778m
param *.uav[99].startX 3537m
param *.uav[99].startY 965m
param *.uav[99].startZ 539m
param *.osgEarthScene.scene "\"boston.earth\""
param *.playgroundLatitude 42.3558
param *.playgroundLongitude -71.0677
param *.playgroundWidth 400m
param *.playgroundHeight 200m
param *.channelController.connectionColor "\"#0000FF40\""
param *.channelController.showConnections false
param *.uav[*].modelURL "\"quadrocopter.small.obj.15.scale.0,0,90.rot\""
param *.uav[*].labelColor "\"#FF7C00CC\""
param *.uav[*].label2Color "\"#FF7C00EE\""
param *.uav[*].batteryCapacity 5200mAh
param *.uav[*].batteryRemaining uav[index].batteryCapacity
param *.uav[*].predictionQuantile 0.95
param *.uav[*].replacementMethod 2
param *.uav[*].weightedSumWeight 0.5
param *.cs[*].modelURL "\"chargingstation_v1.osgt.2.scale.0,0,0.rot.0,0,-15e-1.trans\""
param *.cs[*].spotsWaiting 999
param *.cs[*].spotsCharging 999
param *.cs[*].chargeEffectivenessPercentage 100
param *.cs[*].nonLinearPhaseStartPercentage 85
param *.cs[*].chargeCurrent 6.0A
param *.cs[*].prioritizeFastCharge true
param *.missionControl.replacementSearchMethod 0
param *.*.timeStep 9s

scalar OsgEarthNet.uav[0] utilizationSecMission 39467.054367778
scalar OsgEarthNet.uav[0] utilizationSecMaintenance 23186.132748219
scalar OsgEarthNet.uav[0] utilizationSecCharge 194534.807884
scalar OsgEarthNet.uav[0] utilizationSecIdle 2012.004
scalar OsgEarthNet.uav[0] utilizationEnergyMission 190794.05690002
scalar OsgEarthNet.uav[0] utilizationEnergyMaintenance 108547.5891571
scalar OsgEarthNet.uav[0] utilizationEnergyCharge 296014.4206543
scalar OsgEarthNet.uav[0] utilizationEnergyOverdrawMission 0
scalar OsgEarthNet.uav[0] utilizationEnergyOverdrawMaintenance 0
scalar OsgEarthNet.uav[0] utilizationCountMissions 68
scalar OsgEarthNet.uav[0] utilizationCountManeuversMission 1282
scalar OsgEarthNet.uav[0] utilizationCountManeuversMaintenance 136
scalar OsgEarthNet.uav[0] utilizationCountChargeState 68
scalar OsgEarthNet.uav[0] utilizationCountOverdrawnAfterMission 0
scalar OsgEarthNet.uav[0] utilizationCountIdleState 3
scalar OsgEarthNet.uav[0] utilizationFail 0
scalar OsgEarthNet.uav[0] simulationTime 259200
scalar OsgEarthNet.uav[1] utilizationSecMission 43544.789933202
scalar OsgEarthNet.uav[1] utilizationSecMaintenance 18859.983609481
scalar OsgEarthNet.uav[1] utilizationSecCharge 194469.78336863
scalar OsgEarthNet.uav[1] utilizationSecIdle 2325.4420886909
scalar OsgEarthNet.uav[1] utilizationEnergyMission 213212.86138535
scalar OsgEarthNet.uav[1] utilizationEnergyMaintenance 88233.905994415
scalar OsgEarthNet.uav[1] utilizationEnergyCharge 297360.76397705
scalar OsgEarthNet.uav[1] utilizationEnergyOverdrawMission 0
scalar OsgEarthNet.uav[1] utilizationEnergyOverdrawMaintenance 0
scalar OsgEarthNet.uav[1] utilizationCountMissions 67
scalar OsgEarthNet.uav[1] utilizationCountManeuversMission 1338
scalar OsgEarthNet.uav[1] utilizationCountManeuversMaintenance 134
scalar OsgEarthNet.uav[1] utilizationCountChargeState 67
scalar OsgEarthNet.uav[1] utilizationCountOverdrawnAfterMission 0
scalar OsgEarthNet.uav[1] utilizationCountIdleState 2
scalar OsgEarthNet.uav[1] utilizationFail 0
scalar OsgEarthNet.uav[1] simulationTime 259200
scalar OsgEarthNet.uav[2] utilizationSecMission 45789.468641798
scalar OsgEarthNet.uav[2] utilizationSecMaintenance 16367.850206527
scalar OsgEarthNet.uav[2] utilizationSecCharge 196110.67915167
scalar OsgEarthNet.uav[2] utilizationSecIdle 932.001
scalar OsgEarthNet.uav[2] utilizationEnergyMission 219657.06093597
scalar OsgEarthNet.uav[2] utilizationEnergyMaintenance 75533.232646942
scalar OsgEarthNet.uav[2] utilizationEnergyCharge 294439.05322266
scalar OsgEarthNet.uav[2] utilizationEnergyOverdrawMission 0
scalar OsgEarthNet.uav[2] utilizationEnergyOverdrawMaintenance 0
scalar OsgEarthNet.uav[2] utilizationCountMissions 65
scalar OsgEarthNet.uav[2] utilizationCountManeuversMission 1326
scalar OsgEarthNet.uav[2] utilizationCountManeuversMaintenance 130
scalar OsgEarthNet.uav[2] utilizationCountChargeState 65
scalar OsgEarthNet.uav[2] utilizationCountOverdrawnAfterMission 0
scalar OsgEarthNet.uav[2] utilizationCountIdleState 2
scalar OsgEarthNet.uav[2] utilizationFail 0
scalar OsgEarthNet.uav[2] simulationTime 259200
scalar OsgEarthNet.uav[3] utilizationSecMission 36967.048257654
scalar OsgEarthNet.uav[3] utilizationSecMaintenance 20478.02969621
scalar OsgEarthNet.uav[3] utilizationSecCharge 198113.13494361
scalar OsgEarthNet.uav[3] utilizationSecIdle 3641.7861025228
scalar OsgEarthNet.uav[3] utilizationEnergyMission 177687.49355316
scalar OsgEarthNet.uav[3] utilizationEnergyMaintenance 97568.383041382
scalar OsgEarthNet.uav[3] utilizationEnergyCharge 272516.2734375
scalar OsgEarthNet.uav[3] utilizationEnergyOverdrawMission 0
scalar OsgEarthNet.uav[3] utilizationEnergyOverdrawMaintenance 0
scalar OsgEarthNet.uav[3] utilizationCountMissions 67
scalar OsgEarthNet.uav[3] utilizationCountManeuversMission 1066
scalar OsgEarthNet.uav[3] utilizationCountManeuversMaintenance 134
scalar OsgEarthNet.uav[3] utilizationCountChargeState 67
scalar OsgEarthNet.uav[3] utilizationCountOverdrawnAfterMission 0
scalar OsgEarthNet.uav[3] utilizationCountIdleState 9
scalar OsgEarthNet.uav[3] utilizationFail 0
scalar OsgEarthNet.uav[3] simulationTime 259200
scalar OsgEarthNet.uav[4] utilizationSecMission 37442.59797126
scalar OsgEarthNet.uav[4] utilizationSecMaintenance 20903.402849301
scalar OsgEarthNet.uav[4] utilizationSecCharge 197931.99417944
scalar OsgEarthNet.uav[4] utilizationSecIdle 2922.004
scalar OsgEarthNet.uav[4] utilizationEnergyMission 180660.41321564
scalar OsgEarthNet.uav[4] utilizationEnergyMaintenance 99265.042251587
scalar OsgEarthNet.uav[4] utilizationEnergyCharge 274908.9230957
scalar OsgEarthNet.uav[4] utilizationEnergyOverdrawMission 0
scalar OsgEarthNet.uav[4] utilizationEnergyOverdrawMaintenance 0
scalar OsgEarthNet.uav[4] utilizationCountMissions 68
scalar OsgEarthNet.uav[4] utilizationCountManeuversMission 1059
scalar OsgEarthNet.uav[4] utilizationCountManeuversMaintenance 136
scalar OsgEarthNet.uav[4] utilizationCountChargeState 68
scalar OsgEarthNet.uav[4] utilizationCountOverdrawnAfterMission 0
scalar OsgEarthNet.uav[4] utilizationCountIdleState 11
scalar OsgEarthNet.uav[4] utilizationFail 0
scalar OsgEarthNet.uav[4] simulationTime 259200
scalar OsgEarthNet.uav[5] utilizationSecMission 42394.130547519
scalar OsgEarthNet.uav[5] utilizationSecMaintenance 20639.762234012
scalar OsgEarthNet.uav[5] utilizationSecCharge 194544.10321847
scalar OsgEarthNet.uav[5] utilizationSecIdle 1622.003
scalar OsgEarthNet.uav[5] utilizationEnergyMission 209418.49404907
scalar OsgEarthNet.uav[5] utilizationEnergyMaintenance 95901.292720795
scalar OsgEarthNet.uav[5] utilizationEnergyCharge 303018.02172852
scalar OsgEarthNet.uav[5] utilizationEnergyOverdrawMission 0
scalar OsgEarthNet.uav[5] utilizationEnergyOverdrawMaintenance 0
scalar OsgEarthNet.uav[5] utilizationCountMissions 68
scalar OsgEarthNet.uav[5] utilizationCountManeuversMission 1526
scalar OsgEarthNet.uav[5] utilizationCountManeuversMaintenance 136
scalar OsgEarthNet.uav[5] utilizationCountChargeState 68
scalar OsgEarthNet.uav[5] utilizationCountOverdrawnAfterMission 0
scalar OsgEarthNet.uav[5] utilizationCountIdleState 1
scalar OsgEarthNet.uav[5] utilizationFail 0
scalar OsgEarthNet.uav[5] simulationTime 259200
scalar OsgEarthNet.uav[6] utilizationSecMission 38861.413657249
scalar OsgEarthNet.uav[6] utilizationSecMaintenance 20406.580342751
scalar OsgEarthNet.uav[6] utilizationSecCharge 197050
scalar OsgEarthNet.uav[6] utilizationSecIdle 2882.005
scalar OsgEarthNet.uav[6] utilizationEnergyMission 185975.49107742
scalar OsgEarthNet.uav[6] utilizationEnergyMaintenance 95754.300441313
scalar OsgEarthNet.uav[6] utilizationEnergyCharge 277333.55029297
scalar OsgEarthNet.uav[6] utilizationEnergyOverdrawMission 0
scalar OsgEarthNet.uav[6] utilizationEnergyOverdrawMaintenance 0
scalar OsgEarthNet.uav[6] utilizationCountMissions 67
scalar OsgEarthNet.uav[6] utilizationCountManeuversMission 1043
scalar OsgEarthNet.uav[6] utilizationCountManeuversMaintenance 134
scalar OsgEarthNet.uav[6] utilizationCountChargeState 66
scalar OsgEarthNet.uav[6] utilizationCountOverdrawnAfterMission 0
scalar OsgEarthNet.uav[6] utilizationCountIdleState 9
scalar OsgEarthNet.uav[6] utilizationFail 0
scalar OsgEarthNet.uav[6] simulationTime 259200
scalar OsgEarthNet.uav[7] utilizationSecMission 42118.285360148
scalar OsgEarthNet.uav[7] utilizationSecMaintenance 18733.262925289
scalar OsgEarthNet.uav[7] utilizationSecCharge 195438.65049596
scalar OsgEarthNet.uav[7] utilizationSecIdle 2909.8002186065
scalar OsgEarthNet.uav[7] utilizationEnergyMission 205797.73524094
scalar OsgEarthNet.uav[7] utilizationEnergyMaintenance 86643.22631073
scalar OsgEarthNet.uav[7] utilizationEnergyCharge 292413.70751953
scalar OsgEarthNet.uav[7] utilizationEnergyOverdrawMission 0
scalar OsgEarthNet.uav[7] utilizationEnergyOverdrawMaintenance 0
scalar OsgEarthNet.uav[7] utilizationCountMissions 65
scalar OsgEarthNet.uav[7] utilizationCountManeuversMission 1359
scalar OsgEarthNet.uav[7] utilizationCountManeuversMaintenance 130
scalar OsgEarthNet.uav[7] utilizationCountChargeState 65
scalar OsgEarthNet.uav[7] utilizationCountOverdrawnAfterMission 0
scalar OsgEarthNet.uav[7] utilizationCountIdleState 5
scalar OsgEarthNet.uav[7] utilizationFail 0
scalar OsgEarthNet.uav[7] simulationTime 259200
scalar OsgEarthNet.uav[8] utilizationSecMission 41864.351847935
scalar OsgEarthNet.uav[8] utilizationSecMaintenance 20942.427323676
scalar OsgEarthNet.uav[8] utilizationSecCharge 194203.58874772
scalar OsgEarthNet.uav[8] utilizationSecIdle 2189.6310806652
scalar OsgEarthNet.uav[8] utilizationEnergyMission 203680.49391556
scalar OsgEarthNet.uav[8] utilizationEnergyMaintenance 96992.447937012
scalar OsgEarthNet.uav[8] utilizationEnergyCharge 302318.09008789
scalar OsgEarthNet.uav[8] utilizationEnergyOverdrawMission 0
scalar OsgEarthNet.uav[8] utilizationEnergyOverdrawMaintenance 0
scalar OsgEarthNet.uav[8] utilizationCountMissions 68
scalar OsgEarthNet.uav[8] utilizationCountManeuversMission 1527
scalar OsgEarthNet.uav[8] utilizationCountManeuversMaintenance 136
scalar OsgEarthNet.uav[8] utilizationCountChargeState 68
scalar OsgEarthNet.uav[8] utilizationCountOverdrawnAfterMission 0
scalar OsgEarthNet.uav[8] utilizationCountIdleState 1
scalar OsgEarthNet.uav[8] utilizationFail 0
scalar OsgEarthNet.uav[8] simulationTime 259200
scalar OsgEarthNet.uav[9] utilizationSecMission 36366.963678242
scalar OsgEarthNet.uav[9] utilizationSecMaintenance 21149.052605214
scalar OsgEarthNet.uav[9] utilizationSecCharge 198801.2167512
scalar OsgEarthNet.uav[9] utilizationSecIdle 2882.765965339
scalar OsgEarthNet.uav[9] utilizationEnergyMission 176477.55835342
scalar OsgEarthNet.uav[9] utilizationEnergyMaintenance 100318.4557457
scalar OsgEarthNet.uav[9] utilizationEnergyCharge 273599.64501953
scalar OsgEarthNet.uav[9] utilizationEnergyOverdrawMission 0
scalar OsgEarthNet.uav[9] utilizationEnergyOverdrawMaintenance 0
scalar OsgEarthNet.uav[9] utilizationCountMissions 68
scalar OsgEarthNet.uav[9] utilizationCountManeuversMission 1045
scalar OsgEarthNet.uav[9] utilizationCountManeuversMaintenance 136
scalar OsgEarthNet.uav[9] utilizationCountChargeState 68
scalar OsgEarthNet.uav[9] utilizationCountOverdrawnAfterMission 0
scalar OsgEarthNet.uav[9] utilizationCountIdleState 9
scalar OsgEarthNet.uav[9] utilizationFail 0
scalar OsgEarthNet.uav[9] simulationTime 259200
scalar OsgEarthNet.uav[10] utilizationSecMission 39507.274735223
scalar OsgEarthNet.uav[10] utilizationSecMaintenance 22855.289305776
scalar OsgEarthNet.uav[10] utilizationSecCharge 193745.29021905
scalar OsgEarthNet.uav[10] utilizationSecIdle 3092.1447399488
scalar OsgEarthNet.uav[10] utilizationEnergyMission 190987.59579849
scalar OsgEarthNet.uav[10] utilizationEnergyMaintenance 107783.10424423
scalar OsgEarthNet.uav[10] utilizationEnergyCharge 297270.46362305
scalar OsgEarthNet.uav[10] utilizationEnergyOverdrawMission 0
scalar OsgEarthNet.uav[10] utilizationEnergyOverdrawMaintenance 0
scalar OsgEarthNet.uav[10] utilizationCountMissions 68
scalar OsgEarthNet.uav[10] utilizationCountManeuversMission 1186
scalar OsgEarthNet.uav[10] utilizationCountManeuversMaintenance 136
scalar OsgEarthNet.uav[10] utilizationCountChargeState 68
scalar OsgEarthNet.uav[10] utilizationCountOverdrawnAfterMission 0
scalar OsgEarthNet.uav[10] utilizationCountIdleState 4
scalar OsgEarthNet.uav[10] utilizationFail 0
scalar OsgEarthNet.uav[10] simulationTime 259200
scalar OsgEarthNet.uav[11] utilizationSecMission 36858.238272148
scalar OsgEarthNet.uav[11] utilizationSecMaintenance 21113.707636685
scalar OsgEarthNet.uav[11] utilizationSecCharge 200196.05309117
scalar OsgEarthNet.uav[11] utilizationSecIdle 1032
scalar OsgEarthNet.uav[11] utilizationEnergyMission 178868.11856461
scalar OsgEarthNet.uav[11] utilizationEnergyMaintenance 99977.876968384
scalar OsgEarthNet.uav[11] utilizationEnergyCharge 274610.74951172
scalar OsgEarthNet.uav[11] utilizationEnergyOverdrawMission 0
scalar OsgEarthNet.uav[11] utilizationEnergyOverdrawMaintenance 0
scalar OsgEarthNet.uav[11] utilizationCountMissions 68
scalar OsgEarthNet.uav[11] utilizationCountManeuversMission 1116
scalar OsgEarthNet.uav[11] utilizationCountManeuversMaintenance 135
scalar OsgEarthNet.uav[11] utilizationCountChargeState 68
scalar OsgEarthNet.uav[11] utilizationCountOverdrawnAfterMission 0
scalar OsgEarthNet.uav[11] utilizationCountIdleState 12
scalar OsgEarthNet.uav[11] utilizationFail 0
scalar OsgEarthNet.uav[11] simulationTime 259200
scalar OsgEarthNet.uav[12] utilizationSecMission 42474.014553171
scalar OsgEarthNet.uav[12] utilizationSecMaintenance 20163.984446829
scalar OsgEarthNet.uav[12] utilizationSecCharge 196310
scalar OsgEarthNet.uav[12] utilizationSecIdle 252
scalar OsgEarthNet.uav[12] utilizationEnergyMission 205177.00275208
scalar OsgEarthNet.uav[12] utilizationEnergyMaintenance 94594.057014465
scalar OsgEarthNet.uav[12] utilizationEnergyCharge 295412.48999023
scalar OsgEarthNet.uav[12] utilizationEnergyOverdrawMission 0
scalar OsgEarthNet.uav[12] utilizationEnergyOverdrawMaintenance 0
scalar OsgEarthNet.uav[12] utilizationCountMissions 66
scalar OsgEarthNet.uav[12] utilizationCountManeuversMission 1320
scalar OsgEarthNet.uav[12] utilizationCountManeuversMaintenance 133
scalar OsgEarthNet.uav[12] utilizationCountChargeState 66
scalar OsgEarthNet.uav[12] utilizationCountOverdrawnAfterMission 0
scalar OsgEarthNet.uav[12] utilizationCountIdleState 4
scalar OsgEarthNet.uav[12] utilizationFail 0
scalar OsgEarthNet.uav[12] simulationTime 259200
scalar OsgEarthNet.uav[13] utilizationSecMission 36325.188748485
scalar OsgEarthNet.uav[13] utilizationSecMaintenance 21089.987064143
scalar OsgEarthNet.uav[13] utilizationSecCharge 199793.30952642
scalar OsgEarthNet.uav[13] utilizationSecIdle 1991.5136609497
scalar OsgEarthNet.uav[13] utilizationEnergyMission 174103.70883179
scalar OsgEarthNet.uav[13] utilizationEnergyMaintenance 101413.66986084
scalar OsgEarthNet.uav[13] utilizationEnergyCharge 274497.40625
scalar OsgEarthNet.uav[13] utilizationEnergyOverdrawMission 0
scalar OsgEarthNet.uav[13] utilizationEnergyOverdrawMaintenance 0
scalar OsgEarthNet.uav[13] utilizationCountMissions 70
scalar OsgEarthNet.uav[13] utilizationCountManeuversMission 976
scalar OsgEarthNet.uav[13] utilizationCountManeuversMaintenance 140
scalar OsgEarthNet.uav[13] utilizationCountChargeState 70
scalar OsgEarthNet.uav[13] utilizationCountOverdrawnAfterMission 0
scalar OsgEarthNet.uav[13] utilizationCountIdleState 11
scalar OsgEarthNet.uav[13] utilizationFail 0
scalar OsgEarthNet.uav[13] simulationTime 259200
scalar OsgEarthNet.uav[14] utilizationSecMission 35934.182193777
scalar OsgEarthNet.uav[14] utilizationSecMaintenance 21650.117195027
scalar OsgEarthNet.uav[14] utilizationSecCharge 198650.99391216
scalar OsgEarthNet.uav[14] utilizationSecIdle 2964.7056990363
scalar OsgEarthNet.uav[14] utilizationEnergyMission 173904.32875824
scalar OsgEarthNet.uav[14] utilizationEnergyMaintenance 103595.15557861
scalar OsgEarthNet.uav[14] utilizationEnergyCharge 273516.72924805
scalar OsgEarthNet.uav[14] utilizationEnergyOverdrawMission 0
scalar OsgEarthNet.uav[14] utilizationEnergyOverdrawMaintenance 0
scalar OsgEarthNet.uav[14] utilizationCountMissions 71
scalar OsgEarthNet.uav[14] utilizationCountManeuversMission 963
scalar OsgEarthNet.uav[14] utilizationCountManeuversMaintenance 142
scalar OsgEarthNet.uav[14] utilizationCountChargeState 71
scalar OsgEarthNet.uav[14] utilizationCountOverdrawnAfterMission 0
scalar OsgEarthNet.uav[14] utilizationCountIdleState 7
scalar OsgEarthNet.uav[14] utilizationFail 0
scalar OsgEarthNet.uav[14] simulationTime 259200
scalar OsgEarthNet.uav[15] utilizationSecMission 42383.922414753
scalar OsgEarthNet.uav[15] utilizationSecMaintenance 19854.025207244
scalar OsgEarthNet.uav[15] utilizationSecCharge 196410.050378
scalar OsgEarthNet.uav[15] utilizationSecIdle 552.001
scalar OsgEarthNet.uav[15] utilizationEnergyMission 206906.57782364
scalar OsgEarthNet.uav[15] utilizationEnergyMaintenance 92754.919647217
scalar OsgEarthNet.uav[15] utilizationEnergyCharge 299177.47595215
scalar OsgEarthNet.uav[15] utilizationEnergyOverdrawMission 0
scalar OsgEarthNet.uav[15] utilizationEnergyOverdrawMaintenance 0
scalar OsgEarthNet.uav[15] utilizationCountMissions 67
scalar OsgEarthNet.uav[15] utilizationCountManeuversMission 1432
scalar OsgEarthNet.uav[15] utilizationCountManeuversMaintenance 134
scalar OsgEarthNet.uav[15] utilizationCountChargeState 67
scalar OsgEarthNet.uav[15] utilizationCountOverdrawnAfterMission 0
scalar OsgEarthNet.uav[15] utilizationCountIdleState 2
scalar OsgEarthNet.uav[15] utilizationFail 0
scalar OsgEarthNet.uav[15] simulationTime 259200
scalar OsgEarthNet.uav[16] utilizationSecMission 34628.752136124
scalar OsgEarthNet.uav[16] utilizationSecMaintenance 27847.849540878
scalar OsgEarthNet.uav[16] utilizationSecCharge 193251.390323
scalar OsgEarthNet.uav[16] utilizationSecIdle 3472.007
scalar OsgEarthNet.uav[16] utilizationEnergyMission 174979.40631104
scalar OsgEarthNet.uav[16] utilizationEnergyMaintenance 132894.24854279
scalar OsgEarthNet.uav[16] utilizationEnergyCharge 304268.18212891
scalar OsgEarthNet.uav[16] utilizationEnergyOverdrawMission 0
scalar OsgEarthNet.uav[16] utilizationEnergyOverdrawMaintenance 0
scalar OsgEarthNet.uav[16] utilizationCountMissions 70
scalar OsgEarthNet.uav[16] utilizationCountManeuversMission 1367
scalar OsgEarthNet.uav[16] utilizationCountManeuversMaintenance 140
scalar OsgEarthNet.uav[16] utilizationCountChargeState 70
scalar OsgEarthNet.uav[16] utilizationCountOverdrawnAfterMission 0
scalar OsgEarthNet.uav[16] utilizationCountIdleState 2
scalar OsgEarthNet.uav[16] utilizationFail 0
scalar OsgEarthNet.uav[16] simulationTime 259200
scalar OsgEarthNet.uav[17] utilizationSecMission 41845.196155584
scalar OsgEarthNet.uav[17] utilizationSecMaintenance 20886.449241537
scalar OsgEarthNet.uav[17] utilizationSecCharge 194640
scalar OsgEarthNet.uav[17] utilizationSecIdle 1828.3536028792
scalar OsgEarthNet.uav[17] utilizationEnergyMission 203525.32294614
scalar OsgEarthNet.uav[17] utilizationEnergyMaintenance 95608.512077332
scalar OsgEarthNet.uav[17] utilizationEnergyCharge 298197.45947266
scalar OsgEarthNet.uav[17] utilizationEnergyOverdrawMission 0
scalar OsgEarthNet.uav[17] utilizationEnergyOverdrawMaintenance 0
scalar OsgEarthNet.uav[17] utilizationCountMissions 68
scalar OsgEarthNet.uav[17] utilizationCountManeuversMission 1415
scalar OsgEarthNet.uav[17] utilizationCountManeuversMaintenance 137
scalar OsgEarthNet.uav[17] utilizationCountChargeState 68
scalar OsgEarthNet.uav[17] utilizationCountOverdrawnAfterMission 0
scalar OsgEarthNet.uav[17] utilizationCountIdleState 2
scalar OsgEarthNet.uav[17] utilizationFail 0
scalar OsgEarthNet.uav[17] simulationTime 259200
scalar OsgEarthNet.uav[18] utilizationSecMission 40970.399511963
scalar OsgEarthNet.uav[18] utilizationSecMaintenance 21770.251943557
scalar OsgEarthNet.uav[18] utilizationSecCharge 196017.34754448
scalar OsgEarthNet.uav[18] utilizationSecIdle 442
scalar OsgEarthNet.uav[18] utilizationEnergyMission 202839.53362274
scalar OsgEarthNet.uav[18] utilizationEnergyMaintenance 101493.15348816
scalar OsgEarthNet.uav[18] utilizationEnergyCharge 300605.91162109
scalar OsgEarthNet.uav[18] utilizationEnergyOverdrawMission 0
scalar OsgEarthNet.uav[18] utilizationEnergyOverdrawMaintenance 0
scalar OsgEarthNet.uav[18] utilizationCountMissions 68
scalar OsgEarthNet.uav[18] utilizationCountManeuversMission 1375
scalar OsgEarthNet.uav[18] utilizationCountManeuversMaintenance 136
scalar OsgEarthNet.uav[18] utilizationCountChargeState 68
scalar OsgEarthNet.uav[18] utilizationCountOverdrawnAfterMission 0
scalar OsgEarthNet.uav[18] utilizationCountIdleState 4
scalar OsgEarthNet.uav[18] utilizationFail 0
scalar OsgEarthNet.uav[18] simulationTime 259200
scalar OsgEarthNet.uav[19] utilizationSecMission 44833.379493828
scalar OsgEarthNet.uav[19] utilizationSecMaintenance 17623.236292757
scalar OsgEarthNet.uav[19] utilizationSecCharge 193992.43495775
scalar OsgEarthNet.uav[19] utilizationSecIdle 2750.9482556647
scalar OsgEarthNet.uav[19] utilizationEnergyMission 214544.72600937
scalar OsgEarthNet.uav[19] utilizationEnergyMaintenance 81120.23690033
scalar OsgEarthNet.uav[19] utilizationEnergyCharge 294889.77270508
scalar OsgEarthNet.uav[19] utilizationEnergyOverdrawMission 0
scalar OsgEarthNet.uav[19] utilizationEnergyOverdrawMaintenance 0
scalar OsgEarthNet.uav[19] utilizationCountMissions 66
scalar OsgEarthNet.uav[19] utilizationCountManeuversMission 1361
scalar OsgEarthNet.uav[19] utilizationCountManeuversMaintenance 132
scalar OsgEarthNet.uav[19] utilizationCountChargeState 66
scalar OsgEarthNet.uav[19] utilizationCountOverdrawnAfterMission 0
scalar OsgEarthNet.uav[19] utilizationCountIdleState 2
scalar OsgEarthNet.uav[19] utilizationFail 0
scalar OsgEarthNet.uav[19] simulationTime 259200
scalar OsgEarthNet.uav[20] utilizationSecMission 34951.116067405
scalar OsgEarthNet.uav[20] utilizationSecMaintenance 22816.882932595
scalar OsgEarthNet.uav[20] utilizationSecCharge 200980
scalar OsgEarthNet.uav[20] utilizationSecIdle 452
scalar OsgEarthNet.uav[20] utilizationEnergyMission 169386.85314162
scalar OsgEarthNet.uav[20] utilizationEnergyMaintenance 107844.34472275
scalar OsgEarthNet.uav[20] utilizationEnergyCharge 277477.60986328
scalar OsgEarthNet.uav[20] utilizationEnergyOverdrawMission 0
scalar OsgEarthNet.uav[20] utilizationEnergyOverdrawMaintenance 0
scalar OsgEarthNet.uav[20] utilizationCountMissions 69
scalar OsgEarthNet.uav[20] utilizationCountManeuversMission 1092
scalar OsgEarthNet.uav[20] utilizationCountManeuversMaintenance 139
scalar OsgEarthNet.uav[20] utilizationCountChargeState 69
scalar OsgEarthNet.uav[20] utilizationCountOverdrawnAfterMission 0
scalar OsgEarthNet.uav[20] utilizationCountIdleState 4
scalar OsgEarthNet.uav[20] utilizationFail 0
scalar OsgEarthNet.uav[20] simulationTime 259200
scalar OsgEarthNet.uav[21] utilizationSecMission 38623.475041796
scalar OsgEarthNet.uav[21] utilizationSecMaintenance 25168.384034001
scalar OsgEarthNet.uav[21] utilizationSecCharge 195266.1399242
scalar OsgEarthNet.uav[21] utilizationSecIdle 142
scalar OsgEarthNet.uav[21] utilizationEnergyMission 188254.28284836
scalar OsgEarthNet.uav[21] utilizationEnergyMaintenance 119325.74995804
scalar OsgEarthNet.uav[21] utilizationEnergyCharge 303308.60522461
scalar OsgEarthNet.uav[21] utilizationEnergyOverdrawMission 0
scalar OsgEarthNet.uav[21] utilizationEnergyOverdrawMaintenance 0
scalar OsgEarthNet.uav[21] utilizationCountMissions 70
scalar OsgEarthNet.uav[21] utilizationCountManeuversMission 1262
scalar OsgEarthNet.uav[21] utilizationCountManeuversMaintenance 140
scalar OsgEarthNet.uav[21] utilizationCountChargeState 70
scalar OsgEarthNet.uav[21] utilizationCountOverdrawnAfterMission 0
scalar OsgEarthNet.uav[21] utilizationCountIdleState 2
scalar OsgEarthNet.uav[21] utilizationFail 0
scalar OsgEarthNet.uav[21] simulationTime 259200
scalar OsgEarthNet.uav[22] utilizationSecMission 43854.23884514
scalar OsgEarthNet.uav[22] utilizationSecMaintenance 18274.460168593
scalar OsgEarthNet.uav[22] utilizationSecCharge 195284.94976545
scalar OsgEarthNet.uav[22] utilizationSecIdle 1786.3502208215
scalar OsgEarthNet.uav[22] utilizationEnergyMission 213986.27462006
scalar OsgEarthNet.uav[22] utilizationEnergyMaintenance 83940.93422699
scalar OsgEarthNet.uav[22] utilizationEnergyCharge 295873.22290039
scalar OsgEarthNet.uav[22] utilizationEnergyOverdrawMission 0
scalar OsgEarthNet.uav[22] utilizationEnergyOverdrawMaintenance 0
scalar OsgEarthNet.uav[22] utilizationCountMissions 66
scalar OsgEarthNet.uav[22] utilizationCountManeuversMission 1524
scalar OsgEarthNet.uav[22] utilizationCountManeuversMaintenance 132
scalar OsgEarthNet.uav[22] utilizationCountChargeState 66
scalar OsgEarthNet.uav[22] utilizationCountOverdrawnAfterMission 0
scalar OsgEarthNet.uav[22] utilizationCountIdleState 2
scalar OsgEarthNet.uav[22] utilizationFail 0
scalar OsgEarthNet.uav[22] simulationTime 259200
scalar OsgEarthNet.uav[23] utilizationSecMission 37609.431497253
scalar OsgEarthNet.uav[23] utilizationSecMaintenance 24446.549233019
scalar OsgEarthNet.uav[23] utilizationSecCharge 192990
scalar OsgEarthNet.uav[23] utilizationSecIdle 4154.0182697282
scalar OsgEarthNet.uav[23] utilizationEnergyMission 184692.53568719
scalar OsgEarthNet.uav[23] utilizationEnergyMaintenance 115553.69684601
scalar OsgEarthNet.uav[23] utilizationEnergyCharge 294741.58935547
scalar OsgEarthNet.uav[23] utilizationEnergyOverdrawMission 0
scalar OsgEarthNet.uav[23] utilizationEnergyOverdrawMaintenance 0
scalar OsgEarthNet.uav[23] utilizationCountMissions 69
scalar OsgEarthNet.uav[23] utilizationCountManeuversMission 1217
scalar OsgEarthNet.uav[23] utilizationCountManeuversMaintenance 139
scalar OsgEarthNet.uav[23] utilizationCountChargeState 69
scalar OsgEarthNet.uav[23] utilizationCountOverdrawnAfterMission 0
scalar OsgEarthNet.uav[23] utilizationCountIdleState 3
scalar OsgEarthNet.uav[23] utilizationFail 0
scalar OsgEarthNet.uav[23] simulationTime 259200
scalar OsgEarthNet.uav[24] utilizationSecMission 37366.620741484
scalar OsgEarthNet.uav[24] utilizationSecMaintenance 20398.600246313
scalar OsgEarthNet.uav[24] utilizationSecCharge 198302.7730122
scalar OsgEarthNet.uav[24] utilizationSecIdle 3132.005
scalar OsgEarthNet.uav[24] utilizationEnergyMission 178725.38009644
scalar OsgEarthNet.uav[24] utilizationEnergyMaintenance 97451.083774567
scalar OsgEarthNet.uav[24] utilizationEnergyCharge 276308.47802734
scalar OsgEarthNet.uav[24] utilizationEnergyOverdrawMission 0
scalar OsgEarthNet.uav[24] utilizationEnergyOverdrawMaintenance 0
scalar OsgEarthNet.uav[24] utilizationCountMissions 67
scalar OsgEarthNet.uav[24] utilizationCountManeuversMission 1039
scalar OsgEarthNet.uav[24] utilizationCountManeuversMaintenance 134
scalar OsgEarthNet.uav[24] utilizationCountChargeState 67
scalar OsgEarthNet.uav[24] utilizationCountOverdrawnAfterMission 0
scalar OsgEarthNet.uav[24] utilizationCountIdleState 8
scalar OsgEarthNet.uav[24] utilizationFail 0
scalar OsgEarthNet.uav[24] simulationTime 259200
scalar OsgEarthNet.uav[25] utilizationSecMission 41974.212779037
scalar OsgEarthNet.uav[25] utilizationSecMaintenance 20363.784220963
scalar OsgEarthNet.uav[25] utilizationSecCharge 195640
scalar OsgEarthNet.uav[25] utilizationSecIdle 1222.002
scalar OsgEarthNet.uav[25] utilizationEnergyMission 203602.01891457
scalar OsgEarthNet.uav[25] utilizationEnergyMaintenance 94729.947189331
scalar OsgEarthNet.uav[25] utilizationEnergyCharge 294176.58056641
scalar OsgEarthNet.uav[25] utilizationEnergyOverdrawMission 0
scalar OsgEarthNet.uav[25] utilizationEnergyOverdrawMaintenance 0
scalar OsgEarthNet.uav[25] utilizationCountMissions 68
scalar OsgEarthNet.uav[25] utilizationCountManeuversMission 1280
scalar OsgEarthNet.uav[25] utilizationCountManeuversMaintenance 137
scalar OsgEarthNet.uav[25] utilizationCountChargeState 68
scalar OsgEarthNet.uav[25] utilizationCountOverdrawnAfterMission 0
scalar OsgEarthNet.uav[25] utilizationCountIdleState 4
scalar OsgEarthNet.uav[25] utilizationFail 0
scalar OsgEarthNet.uav[25] simulationTime 259200
scalar OsgEarthNet.uav[26] utilizationSecMission 37832.714312171
scalar OsgEarthNet.uav[26] utilizationSecMaintenance 24865.865744147
scalar OsgEarthNet.uav[26] utilizationSecCharge 193817.82828197
scalar OsgEarthNet.uav[26] utilizationSecIdle 2683.5906617084
scalar OsgEarthNet.uav[26] utilizationEnergyMission 183701.28843689
scalar OsgEarthNet.uav[26] utilizationEnergyMaintenance 117825.22403717
scalar OsgEarthNet.uav[26] utilizationEnergyCharge 298782.94659424
scalar OsgEarthNet.uav[26] utilizationEnergyOverdrawMission 0
scalar OsgEarthNet.uav[26] utilizationEnergyOverdrawMaintenance 0
scalar OsgEarthNet.uav[26] utilizationCountMissions 69
scalar OsgEarthNet.uav[26] utilizationCountManeuversMission 1222
scalar OsgEarthNet.uav[26] utilizationCountManeuversMaintenance 138
scalar OsgEarthNet.uav[26] utilizationCountChargeState 69
scalar OsgEarthNet.uav[26] utilizationCountOverdrawnAfterMission 0
scalar OsgEarthNet.uav[26] utilizationCountIdleState 3
scalar OsgEarthNet.uav[26] utilizationFail 0
scalar OsgEarthNet.uav[26] simulationTime 259200
scalar OsgEarthNet.uav[27] utilizationSecMission 37440.725078477
scalar OsgEarthNet.uav[27] utilizationSecMaintenance 20957.270921523
scalar OsgEarthNet.uav[27] utilizationSecCharge 199020
scalar OsgEarthNet.uav[27] utilizationSecIdle 1782.003
scalar OsgEarthNet.uav[27] utilizationEnergyMission 180725.29551315
scalar OsgEarthNet.uav[27] utilizationEnergyMaintenance 98771.088760709
scalar OsgEarthNet.uav[27] utilizationEnergyCharge 275680.06469727
scalar OsgEarthNet.uav[27] utilizationEnergyOverdrawMission 0
scalar OsgEarthNet.uav[27] utilizationEnergyOverdrawMaintenance 0
scalar OsgEarthNet.uav[27] utilizationCountMissions 68
scalar OsgEarthNet.uav[27] utilizationCountManeuversMission 1087
scalar OsgEarthNet.uav[27] utilizationCountManeuversMaintenance 136
scalar OsgEarthNet.uav[27] utilizationCountChargeState 67
scalar OsgEarthNet.uav[27] utilizationCountOverdrawnAfterMission 0
scalar OsgEarthNet.uav[27] utilizationCountIdleState 7
scalar OsgEarthNet.uav[27] utilizationFail 0
scalar OsgEarthNet.uav[27] simulationTime 259200
scalar OsgEarthNet.uav[28] utilizationSecMission 42056.495928067
scalar OsgEarthNet.uav[28] utilizationSecMaintenance 21280.450672862
scalar OsgEarthNet.uav[28] utilizationSecCharge 195095.60213504
scalar OsgEarthNet.uav[28] utilizationSecIdle 767.4502640309
scalar OsgEarthNet.uav[28] utilizationEnergyMission 204053.89860916
scalar OsgEarthNet.uav[28] utilizationEnergyMaintenance 99078.810066223
scalar OsgEarthNet.uav[28] utilizationEnergyCharge 301131.68969727
scalar OsgEarthNet.uav[28] utilizationEnergyOverdrawMission 0
scalar OsgEarthNet.uav[28] utilizationEnergyOverdrawMaintenance 0
scalar OsgEarthNet.uav[28] utilizationCountMissions 69
scalar OsgEarthNet.uav[28] utilizationCountManeuversMission 1288
scalar OsgEarthNet.uav[28] utilizationCountManeuversMaintenance 138
scalar OsgEarthNet.uav[28] utilizationCountChargeState 69
scalar OsgEarthNet.uav[28] utilizationCountOverdrawnAfterMission 0
scalar OsgEarthNet.uav[28] utilizationCountIdleState 1
scalar OsgEarthNet.uav[28] utilizationFail 0
scalar OsgEarthNet.uav[28] simulationTime 259200
scalar OsgEarthNet.uav[29] utilizationSecMission 42562.560515638
scalar OsgEarthNet.uav[29] utilizationSecMaintenance 19366.488228698
scalar OsgEarthNet.uav[29] utilizationSecCharge 193440
scalar OsgEarthNet.uav[29] utilizationSecIdle 3830.9502556647
scalar OsgEarthNet.uav[29] utilizationEnergyMission 207890.24355741
scalar OsgEarthNet.uav[29] utilizationEnergyMaintenance 90039.893486023
scalar OsgEarthNet.uav[29] utilizationEnergyCharge 296019.09960938
scalar OsgEarthNet.uav[29] utilizationEnergyOverdrawMission 0
scalar OsgEarthNet.uav[29] utilizationEnergyOverdrawMaintenance 0
scalar OsgEarthNet.uav[29] utilizationCountMissions 66
scalar OsgEarthNet.uav[29] utilizationCountManeuversMission 1464
scalar OsgEarthNet.uav[29] utilizationCountManeuversMaintenance 133
scalar OsgEarthNet.uav[29] utilizationCountChargeState 66
scalar OsgEarthNet.uav[29] utilizationCountOverdrawnAfterMission 0
scalar OsgEarthNet.uav[29] utilizationCountIdleState 3
scalar OsgEarthNet.uav[29] utilizationFail 0
scalar OsgEarthNet.uav[29] simulationTime 259200
scalar OsgEarthNet.uav[30] utilizationSecMission 35302.213030116
scalar OsgEarthNet.uav[30] utilizationSecMaintenance 22424.089048768
scalar OsgEarthNet.uav[30] utilizationSecCharge 196911.68892112
scalar OsgEarthNet.uav[30] utilizationSecIdle 4562.008
scalar OsgEarthNet.uav[30] utilizationEnergyMission 171573.36686707
scalar OsgEarthNet.uav[30] utilizationEnergyMaintenance 106490.02671432
scalar OsgEarthNet.uav[30] utilizationEnergyCharge 278466.01000977
scalar OsgEarthNet.uav[30] utilizationEnergyOverdrawMission 0
scalar OsgEarthNet.uav[30] utilizationEnergyOverdrawMaintenance 0
scalar OsgEarthNet.uav[30] utilizationCountMissions 65
scalar OsgEarthNet.uav[30] utilizationCountManeuversMission 1229
scalar OsgEarthNet.uav[30] utilizationCountManeuversMaintenance 130
scalar OsgEarthNet.uav[30] utilizationCountChargeState 65
scalar OsgEarthNet.uav[30] utilizationCountOverdrawnAfterMission 0
scalar OsgEarthNet.uav[30] utilizationCountIdleState 8
scalar OsgEarthNet.uav[30] utilizationFail 0
scalar OsgEarthNet.uav[30] simulationTime 259200
scalar OsgEarthNet.uav[31] utilizationSecMission 36783.112637721
scalar OsgEarthNet.uav[31] utilizationSecMaintenance 21482.053894247
scalar OsgEarthNet.uav[31] utilizationSecCharge 199840.22057852
scalar OsgEarthNet.uav[31] utilizationSecIdle 1094.6118895164
scalar OsgEarthNet.uav[31] utilizationEnergyMission 176808.39110184
scalar OsgEarthNet.uav[31] utilizationEnergyMaintenance 101611.15382767
scalar OsgEarthNet.uav[31] utilizationEnergyCharge 276009.17797852
scalar OsgEarthNet.uav[31] utilizationEnergyOverdrawMission 0
scalar OsgEarthNet.uav[31] utilizationEnergyOverdrawMaintenance 0
scalar OsgEarthNet.uav[31] utilizationCountMissions 70
scalar OsgEarthNet.uav[31] utilizationCountManeuversMission 1027
scalar OsgEarthNet.uav[31] utilizationCountManeuversMaintenance 140
scalar OsgEarthNet.uav[31] utilizationCountChargeState 70
scalar OsgEarthNet.uav[31] utilizationCountOverdrawnAfterMission 0
scalar OsgEarthNet.uav[31] utilizationCountIdleState 6
scalar OsgEarthNet.uav[31] utilizationFail 0
scalar OsgEarthNet.uav[31] simulationTime 259200
scalar OsgEarthNet.uav[32] utilizationSecMission 35579.419573298
scalar OsgEarthNet.uav[32] utilizationSecMaintenance 22339.326871675
scalar OsgEarthNet.uav[32] utilizationSecCharge 198929.25055503
scalar OsgEarthNet.uav[32] utilizationSecIdle 2352.002
scalar OsgEarthNet.uav[32] utilizationEnergyMission 170985.99469376
scalar OsgEarthNet.uav[32] utilizationEnergyMaintenance 105673.74357986
scalar OsgEarthNet.uav[32] utilizationEnergyCharge 273970.83892822
scalar OsgEarthNet.uav[32] utilizationEnergyOverdrawMission 0
scalar OsgEarthNet.uav[32] utilizationEnergyOverdrawMaintenance 0
scalar OsgEarthNet.uav[32] utilizationCountMissions 71
scalar OsgEarthNet.uav[32] utilizationCountManeuversMission 1053
scalar OsgEarthNet.uav[32] utilizationCountManeuversMaintenance 142
scalar OsgEarthNet.uav[32] utilizationCountChargeState 71
scalar OsgEarthNet.uav[32] utilizationCountOverdrawnAfterMission 0
scalar OsgEarthNet.uav[32] utilizationCountIdleState 9
scalar OsgEarthNet.uav[32] utilizationFail 0
scalar OsgEarthNet.uav[32] simulationTime 259200
scalar OsgEarthNet.uav[33] utilizationSecMission 39753.301757488
scalar OsgEarthNet.uav[33] utilizationSecMaintenance 23374.697242512
scalar OsgEarthNet.uav[33] utilizationSecCharge 195820
scalar OsgEarthNet.uav[33] utilizationSecIdle 252
scalar OsgEarthNet.uav[33] utilizationEnergyMission 193016.11148834
scalar OsgEarthNet.uav[33] utilizationEnergyMaintenance 110369.86645139
scalar OsgEarthNet.uav[33] utilizationEnergyCharge 301667.84570312
scalar OsgEarthNet.uav[33] utilizationEnergyOverdrawMission 0
scalar OsgEarthNet.uav[33] utilizationEnergyOverdrawMaintenance 0
scalar OsgEarthNet.uav[33] utilizationCountMissions 69
scalar OsgEarthNet.uav[33] utilizationCountManeuversMission 1249
scalar OsgEarthNet.uav[33] utilizationCountManeuversMaintenance 138
scalar OsgEarthNet.uav[33] utilizationCountChargeState 69
scalar OsgEarthNet.uav[33] utilizationCountOverdrawnAfterMission 0
scalar OsgEarthNet.uav[33] utilizationCountIdleState 3
scalar OsgEarthNet.uav[33] utilizationFail 0
scalar OsgEarthNet.uav[33] simulationTime 259200
scalar OsgEarthNet.uav[34] utilizationSecMission 41670.802292745
scalar OsgEarthNet.uav[34] utilizationSecMaintenance 19015.459246293
scalar OsgEarthNet.uav[34] utilizationSecCharge 197211.73546096
scalar OsgEarthNet.uav[34] utilizationSecIdle 1302.002
scalar OsgEarthNet.uav[34] utilizationEnergyMission 201469.07478714
scalar OsgEarthNet.uav[34] utilizationEnergyMaintenance 89979.886096954
scalar OsgEarthNet.uav[34] utilizationEnergyCharge 286892.54223633
scalar OsgEarthNet.uav[34] utilizationEnergyOverdrawMission 0
scalar OsgEarthNet.uav[34] utilizationEnergyOverdrawMaintenance 0
scalar OsgEarthNet.uav[34] utilizationCountMissions 67
scalar OsgEarthNet.uav[34] utilizationCountManeuversMission 1204
scalar OsgEarthNet.uav[34] utilizationCountManeuversMaintenance 134
scalar OsgEarthNet.uav[34] utilizationCountChargeState 67
scalar OsgEarthNet.uav[34] utilizationCountOverdrawnAfterMission 0
scalar OsgEarthNet.uav[34] utilizationCountIdleState 4
scalar OsgEarthNet.uav[34] utilizationFail 0
scalar OsgEarthNet.uav[34] simulationTime 259200
scalar OsgEarthNet.uav[35] utilizationSecMission 40415.724903549
scalar OsgEarthNet.uav[35] utilizationSecMaintenance 20480.703739747
scalar OsgEarthNet.uav[35] utilizationSecCharge 196572.11739799
scalar OsgEarthNet.uav[35] utilizationSecIdle 1731.4529587171
scalar OsgEarthNet.uav[35] utilizationEnergyMission 194647.85253525
scalar OsgEarthNet.uav[35] utilizationEnergyMaintenance 95954.518661499
scalar OsgEarthNet.uav[35] utilizationEnergyCharge 288517.82910156
scalar OsgEarthNet.uav[35] utilizationEnergyOverdrawMission 0
scalar OsgEarthNet.uav[35] utilizationEnergyOverdrawMaintenance 0
scalar OsgEarthNet.uav[35] utilizationCountMissions 67
scalar OsgEarthNet.uav[35] utilizationCountManeuversMission 1306
scalar OsgEarthNet.uav[35] utilizationCountManeuversMaintenance 134
scalar OsgEarthNet.uav[35] utilizationCountChargeState 67
scalar OsgEarthNet.uav[35] utilizationCountOverdrawnAfterMission 0
scalar OsgEarthNet.uav[35] utilizationCountIdleState 5
scalar OsgEarthNet.uav[35] utilizationFail 0
scalar OsgEarthNet.uav[35] simulationTime 259200
scalar OsgEarthNet.uav[36] utilizationSecMission 40064.181265442
scalar OsgEarthNet.uav[36] utilizationSecMaintenance 22731.136855831
scalar OsgEarthNet.uav[36] utilizationSecCharge 195762.67987873
scalar OsgEarthNet.uav[36] utilizationSecIdle 642.001
scalar OsgEarthNet.uav[36] utilizationEnergyMission 191746.21048355
scalar OsgEarthNet.uav[36] utilizationEnergyMaintenance 108209.44264221
scalar OsgEarthNet.uav[36] utilizationEnergyCharge 299434.31640625
scalar OsgEarthNet.uav[36] utilizationEnergyOverdrawMission 0
scalar OsgEarthNet.uav[36] utilizationEnergyOverdrawMaintenance 0
scalar OsgEarthNet.uav[36] utilizationCountMissions 68
scalar OsgEarthNet.uav[36] utilizationCountManeuversMission 1149
scalar OsgEarthNet.uav[36] utilizationCountManeuversMaintenance 136
scalar OsgEarthNet.uav[36] utilizationCountChargeState 68
scalar OsgEarthNet.uav[36] utilizationCountOverdrawnAfterMission 0
scalar OsgEarthNet.uav[36] utilizationCountIdleState 2
scalar OsgEarthNet.uav[36] utilizationFail 0
scalar OsgEarthNet.uav[36] simulationTime 259200
scalar OsgEarthNet.uav[37] utilizationSecMission 43685.622282065
scalar OsgEarthNet.uav[37] utilizationSecMaintenance 18018.933629244
scalar OsgEarthNet.uav[37] utilizationSecCharge 194780
scalar OsgEarthNet.uav[37] utilizationSecIdle 2715.443088691
scalar OsgEarthNet.uav[37] utilizationEnergyMission 213274.26832962
scalar OsgEarthNet.uav[37] utilizationEnergyMaintenance 84304.387359169
scalar OsgEarthNet.uav[37] utilizationEnergyCharge 293515.79077148
scalar OsgEarthNet.uav[37] utilizationEnergyOverdrawMission 0
scalar OsgEarthNet.uav[37] utilizationEnergyOverdrawMaintenance 0
scalar OsgEarthNet.uav[37] utilizationCountMissions 65
scalar OsgEarthNet.uav[37] utilizationCountManeuversMission 1418
scalar OsgEarthNet.uav[37] utilizationCountManeuversMaintenance 131
scalar OsgEarthNet.uav[37] utilizationCountChargeState 65
scalar OsgEarthNet.uav[37] utilizationCountOverdrawnAfterMission 0
scalar OsgEarthNet.uav[37] utilizationCountIdleState 3
scalar OsgEarthNet.uav[37] utilizationFail 0
scalar OsgEarthNet.uav[37] simulationTime 259200
scalar OsgEarthNet.uav[38] utilizationSecMission 43048.934928372
scalar OsgEarthNet.uav[38] utilizationSecMaintenance 19312.702742598
scalar OsgEarthNet.uav[38] utilizationSecCharge 194676.35832903
scalar OsgEarthNet.uav[38] utilizationSecIdle 2162.003
scalar OsgEarthNet.uav[38] utilizationEnergyMission 212657.65231705
scalar OsgEarthNet.uav[38] utilizationEnergyMaintenance 88990.711551666
scalar OsgEarthNet.uav[38] utilizationEnergyCharge 299143.34204102
scalar OsgEarthNet.uav[38] utilizationEnergyOverdrawMission 0
scalar OsgEarthNet.uav[38] utilizationEnergyOverdrawMaintenance 0
scalar OsgEarthNet.uav[38] utilizationCountMissions 67
scalar OsgEarthNet.uav[38] utilizationCountManeuversMission 1513
scalar OsgEarthNet.uav[38] utilizationCountManeuversMaintenance 134
scalar OsgEarthNet.uav[38] utilizationCountChargeState 67
scalar OsgEarthNet.uav[38] utilizationCountOverdrawnAfterMission 0
scalar OsgEarthNet.uav[38] utilizationCountIdleState 2
scalar OsgEarthNet.uav[38] utilizationFail 0
scalar OsgEarthNet.uav[38] simulationTime 259200
scalar OsgEarthNet.uav[39] utilizationSecMission 43800.602744222
scalar OsgEarthNet.uav[39] utilizationSecMaintenance 18230.815598906
scalar OsgEarthNet.uav[39] utilizationSecCharge 194220
scalar OsgEarthNet.uav[39] utilizationSecIdle 2948.5806568717
scalar OsgEarthNet.uav[39] utilizationEnergyMission 214455.03293991
scalar OsgEarthNet.uav[39] utilizationEnergyMaintenance 85122.642884309
scalar OsgEarthNet.uav[39] utilizationEnergyCharge 293915.55175781
scalar OsgEarthNet.uav[39] utilizationEnergyOverdrawMission 0
scalar OsgEarthNet.uav[39] utilizationEnergyOverdrawMaintenance 0
scalar OsgEarthNet.uav[39] utilizationCountMissions 65
scalar OsgEarthNet.uav[39] utilizationCountManeuversMission 1411
scalar OsgEarthNet.uav[39] utilizationCountManeuversMaintenance 131
scalar OsgEarthNet.uav[39] utilizationCountChargeState 65
scalar OsgEarthNet.uav[39] utilizationCountOverdrawnAfterMission 0
scalar OsgEarthNet.uav[39] utilizationCountIdleState 2
scalar OsgEarthNet.uav[39] utilizationFail 0
scalar OsgEarthNet.uav[39] simulationTime 259200
scalar OsgEarthNet.uav[40] utilizationSecMission 37125.431916968
scalar OsgEarthNet.uav[40] utilizationSecMaintenance 20861.501814585
scalar OsgEarthNet.uav[40] utilizationSecCharge 198091.05926845
scalar OsgEarthNet.uav[40] utilizationSecIdle 3122.006
scalar OsgEarthNet.uav[40] utilizationEnergyMission 179001.09784317
scalar OsgEarthNet.uav[40] utilizationEnergyMaintenance 99370.839572906
scalar OsgEarthNet.uav[40] utilizationEnergyCharge 276371.61108398
scalar OsgEarthNet.uav[40] utilizationEnergyOverdrawMission 0
scalar OsgEarthNet.uav[40] utilizationEnergyOverdrawMaintenance 0
scalar OsgEarthNet.uav[40] utilizationCountMissions 67
scalar OsgEarthNet.uav[40] utilizationCountManeuversMission 1065
scalar OsgEarthNet.uav[40] utilizationCountManeuversMaintenance 134
scalar OsgEarthNet.uav[40] utilizationCountChargeState 67
scalar OsgEarthNet.uav[40] utilizationCountOverdrawnAfterMission 0
scalar OsgEarthNet.uav[40] utilizationCountIdleState 7
scalar OsgEarthNet.uav[40] utilizationFail 0
scalar OsgEarthNet.uav[40] simulationTime 259200
scalar OsgEarthNet.uav[41] utilizationSecMission 36790.876223192
scalar OsgEarthNet.uav[41] utilizationSecMaintenance 25837.121776808
scalar OsgEarthNet.uav[41] utilizationSecCharge 195910
scalar OsgEarthNet.uav[41] utilizationSecIdle 662.001
scalar OsgEarthNet.uav[41] utilizationEnergyMission 179435.72874609
scalar OsgEarthNet.uav[41] utilizationEnergyMaintenance 122411.01026154
scalar OsgEarthNet.uav[41] utilizationEnergyCharge 303792.56835938
scalar OsgEarthNet.uav[41] utilizationEnergyOverdrawMission 0
scalar OsgEarthNet.uav[41] utilizationEnergyOverdrawMaintenance 0
scalar OsgEarthNet.uav[41] utilizationCountMissions 70
scalar OsgEarthNet.uav[41] utilizationCountManeuversMission 1227
scalar OsgEarthNet.uav[41] utilizationCountManeuversMaintenance 141
scalar OsgEarthNet.uav[41] utilizationCountChargeState 70
scalar OsgEarthNet.uav[41] utilizationCountOverdrawnAfterMission 0
scalar OsgEarthNet.uav[41] utilizationCountIdleState 4
scalar OsgEarthNet.uav[41] utilizationFail 0
scalar OsgEarthNet.uav[41] simulationTime 259200
scalar OsgEarthNet.uav[42] utilizationSecMission 44851.756298559
scalar OsgEarthNet.uav[42] utilizationSecMaintenance 18468.699894149
scalar OsgEarthNet.uav[42] utilizationSecCharge 194940.36769688
scalar OsgEarthNet.uav[42] utilizationSecIdle 939.17511041073
scalar OsgEarthNet.uav[42] utilizationEnergyMission 218124.8910675
scalar OsgEarthNet.uav[42] utilizationEnergyMaintenance 84508.439655304
scalar OsgEarthNet.uav[42] utilizationEnergyCharge 298875.1940918
scalar OsgEarthNet.uav[42] utilizationEnergyOverdrawMission 0
scalar OsgEarthNet.uav[42] utilizationEnergyOverdrawMaintenance 0
scalar OsgEarthNet.uav[42] utilizationCountMissions 67
scalar OsgEarthNet.uav[42] utilizationCountManeuversMission 1397
scalar OsgEarthNet.uav[42] utilizationCountManeuversMaintenance 134
scalar OsgEarthNet.uav[42] utilizationCountChargeState 67
scalar OsgEarthNet.uav[42] utilizationCountOverdrawnAfterMission 0
scalar OsgEarthNet.uav[42] utilizationCountIdleState 2
scalar OsgEarthNet.uav[42] utilizationFail 0
scalar OsgEarthNet.uav[42] simulationTime 259200
scalar OsgEarthNet.uav[43] utilizationSecMission 36211.252746445
scalar OsgEarthNet.uav[43] utilizationSecMaintenance 26965.354136021
scalar OsgEarthNet.uav[43] utilizationSecCharge 192800
scalar OsgEarthNet.uav[43] utilizationSecIdle 3223.3921175336
scalar OsgEarthNet.uav[43] utilizationEnergyMission 176382.4577446
scalar OsgEarthNet.uav[43] utilizationEnergyMaintenance 127583.87363499
scalar OsgEarthNet.uav[43] utilizationEnergyCharge 299156.36425781
scalar OsgEarthNet.uav[43] utilizationEnergyOverdrawMission 0
scalar OsgEarthNet.uav[43] utilizationEnergyOverdrawMaintenance 0
scalar OsgEarthNet.uav[43] utilizationCountMissions 70
scalar OsgEarthNet.uav[43] utilizationCountManeuversMission 1342
scalar OsgEarthNet.uav[43] utilizationCountManeuversMaintenance 140
scalar OsgEarthNet.uav[43] utilizationCountChargeState 69
scalar OsgEarthNet.uav[43] utilizationCountOverdrawnAfterMission 0
scalar OsgEarthNet.uav[43] utilizationCountIdleState 2
scalar OsgEarthNet.uav[43] utilizationFail 0
scalar OsgEarthNet.uav[43] simulationTime 259200
scalar OsgEarthNet.uav[44] utilizationSecMission 37469.668462691
scalar OsgEarthNet.uav[44] utilizationSecMaintenance 19863.024068219
scalar OsgEarthNet.uav[44] utilizationSecCharge 199029.99038726
scalar OsgEarthNet.uav[44] utilizationSecIdle 2837.3160818306
scalar OsgEarthNet.uav[44] utilizationEnergyMission 180840.25720596
scalar OsgEarthNet.uav[44] utilizationEnergyMaintenance 94890.006038666
scalar OsgEarthNet.uav[44] utilizationEnergyCharge 275007.38671875
scalar OsgEarthNet.uav[44] utilizationEnergyOverdrawMission 0
scalar OsgEarthNet.uav[44] utilizationEnergyOverdrawMaintenance 0
scalar OsgEarthNet.uav[44] utilizationCountMissions 68
scalar OsgEarthNet.uav[44] utilizationCountManeuversMission 990
scalar OsgEarthNet.uav[44] utilizationCountManeuversMaintenance 136
scalar OsgEarthNet.uav[44] utilizationCountChargeState 68
scalar OsgEarthNet.uav[44] utilizationCountOverdrawnAfterMission 0
scalar OsgEarthNet.uav[44] utilizationCountIdleState 6
scalar OsgEarthNet.uav[44] utilizationFail 0
scalar OsgEarthNet.uav[44] simulationTime 259200
scalar OsgEarthNet.uav[45] utilizationSecMission 35436.560165806
scalar OsgEarthNet.uav[45] utilizationSecMaintenance 27272.392092035
scalar OsgEarthNet.uav[45] utilizationSecCharge 196229.04674216
scalar OsgEarthNet.uav[45] utilizationSecIdle 262
scalar OsgEarthNet.uav[45] utilizationEnergyMission 174064.97604839
scalar OsgEarthNet.uav[45] utilizationEnergyMaintenance 130554.05420685
scalar OsgEarthNet.uav[45] utilizationEnergyCharge 304396.0222168
scalar OsgEarthNet.uav[45] utilizationEnergyOverdrawMission 0
scalar OsgEarthNet.uav[45] utilizationEnergyOverdrawMaintenance 0
scalar OsgEarthNet.uav[45] utilizationCountMissions 70
scalar OsgEarthNet.uav[45] utilizationCountManeuversMission 1347
scalar OsgEarthNet.uav[45] utilizationCountManeuversMaintenance 139
scalar OsgEarthNet.uav[45] utilizationCountChargeState 70
scalar OsgEarthNet.uav[45] utilizationCountOverdrawnAfterMission 0
scalar OsgEarthNet.uav[45] utilizationCountIdleState 3
scalar OsgEarthNet.uav[45] utilizationFail 0
scalar OsgEarthNet.uav[45] simulationTime 259200
scalar OsgEarthNet.uav[46] utilizationSecMission 44363.5802644
scalar OsgEarthNet.uav[46] utilizationSecMaintenance 19024.4157356
scalar OsgEarthNet.uav[46] utilizationSecCharge 194150
scalar OsgEarthNet.uav[46] utilizationSecIdle 1662.003
scalar OsgEarthNet.uav[46] utilizationEnergyMission 212243.07513793
scalar OsgEarthNet.uav[46] utilizationEnergyMaintenance 87816.617843628
scalar OsgEarthNet.uav[46] utilizationEnergyCharge 296180.71679688
scalar OsgEarthNet.uav[46] utilizationEnergyOverdrawMission 0
scalar OsgEarthNet.uav[46] utilizationEnergyOverdrawMaintenance 0
scalar OsgEarthNet.uav[46] utilizationCountMissions 66
scalar OsgEarthNet.uav[46] utilizationCountManeuversMission 1218
scalar OsgEarthNet.uav[46] utilizationCountManeuversMaintenance 133
scalar OsgEarthNet.uav[46] utilizationCountChargeState 66
scalar OsgEarthNet.uav[46] utilizationCountOverdrawnAfterMission 0
scalar OsgEarthNet.uav[46] utilizationCountIdleState 4
scalar OsgEarthNet.uav[46] utilizationFail 0
scalar OsgEarthNet.uav[46] simulationTime 259200
scalar OsgEarthNet.uav[47] utilizationSecMission 39691.736549604
scalar OsgEarthNet.uav[47] utilizationSecMaintenance 20991.934133858
scalar OsgEarthNet.uav[47] utilizationSecCharge 196218.32846601
scalar OsgEarthNet.uav[47] utilizationSecIdle 2297.9998505245
scalar OsgEarthNet.uav[47] utilizationEnergyMission 189219.9926796
scalar OsgEarthNet.uav[47] utilizationEnergyMaintenance 98773.805843353
scalar OsgEarthNet.uav[47] utilizationEnergyCharge 285067.38793945
scalar OsgEarthNet.uav[47] utilizationEnergyOverdrawMission 0
scalar OsgEarthNet.uav[47] utilizationEnergyOverdrawMaintenance 0
scalar OsgEarthNet.uav[47] utilizationCountMissions 68
scalar OsgEarthNet.uav[47] utilizationCountManeuversMission 1114
scalar OsgEarthNet.uav[47] utilizationCountManeuversMaintenance 136
scalar OsgEarthNet.uav[47] utilizationCountChargeState 68
scalar OsgEarthNet.uav[47] utilizationCountOverdrawnAfterMission 0
scalar OsgEarthNet.uav[47] utilizationCountIdleState 4
scalar OsgEarthNet.uav[47] utilizationFail 0
scalar OsgEarthNet.uav[47] simulationTime 259200
scalar OsgEarthNet.uav[48] utilizationSecMission 44817.588548663
scalar OsgEarthNet.uav[48] utilizationSecMaintenance 18737.405587477
scalar OsgEarthNet.uav[48] utilizationSecCharge 195573.00486386
scalar OsgEarthNet.uav[48] utilizationSecIdle 72
scalar OsgEarthNet.uav[48] utilizationEnergyMission 216880.64271034
scalar OsgEarthNet.uav[48] utilizationEnergyMaintenance 86700.620121002
scalar OsgEarthNet.uav[48] utilizationEnergyCharge 299704.10546875
scalar OsgEarthNet.uav[48] utilizationEnergyOverdrawMission 0
scalar OsgEarthNet.uav[48] utilizationEnergyOverdrawMaintenance 0
scalar OsgEarthNet.uav[48] utilizationCountMissions 67
scalar OsgEarthNet.uav[48] utilizationCountManeuversMission 1415
scalar OsgEarthNet.uav[48] utilizationCountManeuversMaintenance 133
scalar OsgEarthNet.uav[48] utilizationCountChargeState 67
scalar OsgEarthNet.uav[48] utilizationCountOverdrawnAfterMission 0
scalar OsgEarthNet.uav[48] utilizationCountIdleState 2
scalar OsgEarthNet.uav[48] utilizationFail 0
scalar OsgEarthNet.uav[48] simulationTime 259200
scalar OsgEarthNet.uav[49] utilizationSecMission 39208.496538658
scalar OsgEarthNet.uav[49] utilizationSecMaintenance 23375.612866916
scalar OsgEarthNet.uav[49] utilizationSecCharge 194733.74978128
scalar OsgEarthNet.uav[49] utilizationSecIdle 1882.1398131443
scalar OsgEarthNet.uav[49] utilizationEnergyMission 188447.80963135
scalar OsgEarthNet.uav[49] utilizationEnergyMaintenance 111540.0565567
scalar OsgEarthNet.uav[49] utilizationEnergyCharge 298615.95458984
scalar OsgEarthNet.uav[49] utilizationEnergyOverdrawMission 0
scalar OsgEarthNet.uav[49] utilizationEnergyOverdrawMaintenance 0
scalar OsgEarthNet.uav[49] utilizationCountMissions 69
scalar OsgEarthNet.uav[49] utilizationCountManeuversMission 1184
scalar OsgEarthNet.uav[49] utilizationCountManeuversMaintenance 138
scalar OsgEarthNet.uav[49] utilizationCountChargeState 69
scalar OsgEarthNet.uav[49] utilizationCountOverdrawnAfterMission 0
scalar OsgEarthNet.uav[49] utilizationCountIdleState 2
scalar OsgEarthNet.uav[49] utilizationFail 0
scalar OsgEarthNet.uav[49] simulationTime 259200
scalar OsgEarthNet.uav[50] utilizationSecMission 44054.508469745
scalar OsgEarthNet.uav[50] utilizationSecMaintenance 17921.444258873
scalar OsgEarthNet.uav[50] utilizationSecCharge 193753.09701572
scalar OsgEarthNet.uav[50] utilizationSecIdle 3470.9492556647
scalar OsgEarthNet.uav[50] utilizationEnergyMission 213526.04385376
scalar OsgEarthNet.uav[50] utilizationEnergyMaintenance 81640.63079071
scalar OsgEarthNet.uav[50] utilizationEnergyCharge 295005.12792969
scalar OsgEarthNet.uav[50] utilizationEnergyOverdrawMission 0
scalar OsgEarthNet.uav[50] utilizationEnergyOverdrawMaintenance 0
scalar OsgEarthNet.uav[50] utilizationCountMissions 66
scalar OsgEarthNet.uav[50] utilizationCountManeuversMission 1484
scalar OsgEarthNet.uav[50] utilizationCountManeuversMaintenance 132
scalar OsgEarthNet.uav[50] utilizationCountChargeState 66
scalar OsgEarthNet.uav[50] utilizationCountOverdrawnAfterMission 0
scalar OsgEarthNet.uav[50] utilizationCountIdleState 3
scalar OsgEarthNet.uav[50] utilizationFail 0
scalar OsgEarthNet.uav[50] simulationTime 259200
scalar OsgEarthNet.uav[51] utilizationSecMission 37763.968174554
scalar OsgEarthNet.uav[51] utilizationSecMaintenance 20482.023829799
scalar OsgEarthNet.uav[51] utilizationSecCharge 199452.00548893
scalar OsgEarthNet.uav[51] utilizationSecIdle 1502.0015067221
scalar OsgEarthNet.uav[51] utilizationEnergyMission 181394.48945236
scalar OsgEarthNet.uav[51] utilizationEnergyMaintenance 97135.613075256
scalar OsgEarthNet.uav[51] utilizationEnergyCharge 276454.1550293
scalar OsgEarthNet.uav[51] utilizationEnergyOverdrawMission 0
scalar OsgEarthNet.uav[51] utilizationEnergyOverdrawMaintenance 0
scalar OsgEarthNet.uav[51] utilizationCountMissions 69
scalar OsgEarthNet.uav[51] utilizationCountManeuversMission 991
scalar OsgEarthNet.uav[51] utilizationCountManeuversMaintenance 138
scalar OsgEarthNet.uav[51] utilizationCountChargeState 69
scalar OsgEarthNet.uav[51] utilizationCountOverdrawnAfterMission 0
scalar OsgEarthNet.uav[51] utilizationCountIdleState 11
scalar OsgEarthNet.uav[51] utilizationFail 0
scalar OsgEarthNet.uav[51] simulationTime 259200
scalar OsgEarthNet.uav[52] utilizationSecMission 43420.80057372
scalar OsgEarthNet.uav[52] utilizationSecMaintenance 19091.416957101
scalar OsgEarthNet.uav[52] utilizationSecCharge 195248.35612189
scalar OsgEarthNet.uav[52] utilizationSecIdle 1439.4253472904
scalar OsgEarthNet.uav[52] utilizationEnergyMission 211823.61653519
scalar OsgEarthNet.uav[52] utilizationEnergyMaintenance 88524.02350235
scalar OsgEarthNet.uav[52] utilizationEnergyCharge 299817.58764648
scalar OsgEarthNet.uav[52] utilizationEnergyOverdrawMission 0
scalar OsgEarthNet.uav[52] utilizationEnergyOverdrawMaintenance 0
scalar OsgEarthNet.uav[52] utilizationCountMissions 67
scalar OsgEarthNet.uav[52] utilizationCountManeuversMission 1437
scalar OsgEarthNet.uav[52] utilizationCountManeuversMaintenance 134
scalar OsgEarthNet.uav[52] utilizationCountChargeState 67
scalar OsgEarthNet.uav[52] utilizationCountOverdrawnAfterMission 0
scalar OsgEarthNet.uav[52] utilizationCountIdleState 1
scalar OsgEarthNet.uav[52] utilizationFail 0
scalar OsgEarthNet.uav[52] simulationTime 259200
scalar OsgEarthNet.uav[53] utilizationSecMission 37434.829195519
scalar OsgEarthNet.uav[53] utilizationSecMaintenance 20343.169804481
scalar OsgEarthNet.uav[53] utilizationSecCharge 200560
scalar OsgEarthNet.uav[53] utilizationSecIdle 862
scalar OsgEarthNet.uav[53] utilizationEnergyMission 180442.55367019
scalar OsgEarthNet.uav[53] utilizationEnergyMaintenance 96483.883907318
scalar OsgEarthNet.uav[53] utilizationEnergyCharge 273485.57080078
scalar OsgEarthNet.uav[53] utilizationEnergyOverdrawMission 0
scalar OsgEarthNet.uav[53] utilizationEnergyOverdrawMaintenance 0
scalar OsgEarthNet.uav[53] utilizationCountMissions 68
scalar OsgEarthNet.uav[53] utilizationCountManeuversMission 1029
scalar OsgEarthNet.uav[53] utilizationCountManeuversMaintenance 136
scalar OsgEarthNet.uav[53] utilizationCountChargeState 68
scalar OsgEarthNet.uav[53] utilizationCountOverdrawnAfterMission 0
scalar OsgEarthNet.uav[53] utilizationCountIdleState 9
scalar OsgEarthNet.uav[53] utilizationFail 0
scalar OsgEarthNet.uav[53] simulationTime 259200
scalar OsgEarthNet.uav[54] utilizationSecMission 42888.67496286
scalar OsgEarthNet.uav[54] utilizationSecMaintenance 19325.098669953
scalar OsgEarthNet.uav[54] utilizationSecCharge 194950.7842785
scalar OsgEarthNet.uav[54] utilizationSecIdle 2035.4410886909
scalar OsgEarthNet.uav[54] utilizationEnergyMission 210450.16307831
scalar OsgEarthNet.uav[54] utilizationEnergyMaintenance 88656.544933319
scalar OsgEarthNet.uav[54] utilizationEnergyCharge 299893.72167969
scalar OsgEarthNet.uav[54] utilizationEnergyOverdrawMission 0
scalar OsgEarthNet.uav[54] utilizationEnergyOverdrawMaintenance 0
scalar OsgEarthNet.uav[54] utilizationCountMissions 67
scalar OsgEarthNet.uav[54] utilizationCountManeuversMission 1520
scalar OsgEarthNet.uav[54] utilizationCountManeuversMaintenance 134
scalar OsgEarthNet.uav[54] utilizationCountChargeState 67
scalar OsgEarthNet.uav[54] utilizationCountOverdrawnAfterMission 0
scalar OsgEarthNet.uav[54] utilizationCountIdleState 2
scalar OsgEarthNet.uav[54] utilizationFail 0
scalar OsgEarthNet.uav[54] simulationTime 259200
scalar OsgEarthNet.uav[55] utilizationSecMission 42621.068082749
scalar OsgEarthNet.uav[55] utilizationSecMaintenance 20278.161531302
scalar OsgEarthNet.uav[55] utilizationSecCharge 195371.54977203
scalar OsgEarthNet.uav[55] utilizationSecIdle 929.21961391566
scalar OsgEarthNet.uav[55] utilizationEnergyMission 208382.23760605
scalar OsgEarthNet.uav[55] utilizationEnergyMaintenance 96185.484226227
scalar OsgEarthNet.uav[55] utilizationEnergyCharge 296448.28991699
scalar OsgEarthNet.uav[55] utilizationEnergyOverdrawMission 0
scalar OsgEarthNet.uav[55] utilizationEnergyOverdrawMaintenance 0
scalar OsgEarthNet.uav[55] utilizationCountMissions 67
scalar OsgEarthNet.uav[55] utilizationCountManeuversMission 1327
scalar OsgEarthNet.uav[55] utilizationCountManeuversMaintenance 134
scalar OsgEarthNet.uav[55] utilizationCountChargeState 67
scalar OsgEarthNet.uav[55] utilizationCountOverdrawnAfterMission 0
scalar OsgEarthNet.uav[55] utilizationCountIdleState 4
scalar OsgEarthNet.uav[55] utilizationFail 0
scalar OsgEarthNet.uav[55] simulationTime 259200
scalar OsgEarthNet.uav[56] utilizationSecMission 36765.996208313
scalar OsgEarthNet.uav[56] utilizationSecMaintenance 21612.493316557
scalar OsgEarthNet.uav[56] utilizationSecCharge 199489.50747513
scalar OsgEarthNet.uav[56] utilizationSecIdle 1332.002
scalar OsgEarthNet.uav[56] utilizationEnergyMission 176954.11709595
scalar OsgEarthNet.uav[56] utilizationEnergyMaintenance 102224.81537628
scalar OsgEarthNet.uav[56] utilizationEnergyCharge 279259.07080078
scalar OsgEarthNet.uav[56] utilizationEnergyOverdrawMission 0
scalar OsgEarthNet.uav[56] utilizationEnergyOverdrawMaintenance 0
scalar OsgEarthNet.uav[56] utilizationCountMissions 69
scalar OsgEarthNet.uav[56] utilizationCountManeuversMission 1060
scalar OsgEarthNet.uav[56] utilizationCountManeuversMaintenance 138
scalar OsgEarthNet.uav[56] utilizationCountChargeState 69
scalar OsgEarthNet.uav[56] utilizationCountOverdrawnAfterMission 0
scalar OsgEarthNet.uav[56] utilizationCountIdleState 8
scalar OsgEarthNet.uav[56] utilizationFail 0
scalar OsgEarthNet.uav[56] simulationTime 259200
scalar OsgEarthNet.uav[57] utilizationSecMission 36933.169165972
scalar OsgEarthNet.uav[57] utilizationSecMaintenance 21911.492812973
scalar OsgEarthNet.uav[57] utilizationSecCharge 198284.37303538
scalar OsgEarthNet.uav[57] utilizationSecIdle 2070.9639856735
scalar OsgEarthNet.uav[57] utilizationEnergyMission 176023.64377975
scalar OsgEarthNet.uav[57] utilizationEnergyMaintenance 104658.31453323
scalar OsgEarthNet.uav[57] utilizationEnergyCharge 276956.50366211
scalar OsgEarthNet.uav[57] utilizationEnergyOverdrawMission 0
scalar OsgEarthNet.uav[57] utilizationEnergyOverdrawMaintenance 0
scalar OsgEarthNet.uav[57] utilizationCountMissions 70
scalar OsgEarthNet.uav[57] utilizationCountManeuversMission 1073
scalar OsgEarthNet.uav[57] utilizationCountManeuversMaintenance 140
scalar OsgEarthNet.uav[57] utilizationCountChargeState 70
scalar OsgEarthNet.uav[57] utilizationCountOverdrawnAfterMission 0
scalar OsgEarthNet.uav[57] utilizationCountIdleState 8
scalar OsgEarthNet.uav[57] utilizationFail 0
scalar OsgEarthNet.uav[57] simulationTime 259200
scalar OsgEarthNet.cs[0] usedPower 4079181.6488942
scalar OsgEarthNet.cs[0] chargedPower 4079181.6488942
scalar OsgEarthNet.cs[0] chargedMobileNodes 32
scalar OsgEarthNet.cs[0] reservations 940
scalar OsgEarthNet.cs[1] usedPower 5744387.5594664
scalar OsgEarthNet.cs[1] chargedPower 5744387.5594664
scalar OsgEarthNet.cs[1] chargedMobileNodes 157
scalar OsgEarthNet.cs[1] reservations 1426
scalar OsgEarthNet.cs[2] usedPower 7012379.1664144
scalar OsgEarthNet.cs[2] chargedPower 7012379.1664144
scalar OsgEarthNet.cs[2] chargedMobileNodes 28
scalar OsgEarthNet.cs[2] reservations 1567

