version 2
run Szenario_Hotel_Gabelbach-208-20180712-05:49:03-17084
attr configname Szenario_Hotel_Gabelbach
attr datetime 20180712-05:49:03
attr experiment Szenario_Hotel_Gabelbach
attr inifile omnetpp.ini
attr iterationvars "$replM=2, $biWeight=0.35, $replSearchM=1, $numUAVs=95"
attr iterationvarsf replM=2,biWeight=0.35,replSearchM=1,numUAVs=95-
attr measurement "$replM=2, $biWeight=0.35, $replSearchM=1, $numUAVs=95"
attr network OsgEarthNet
attr processid 17084
attr repetition 4
attr replication #4
attr resultdir results
attr runnumber 208
attr seedset 208
itervar biWeight 0.35
itervar numUAVs 95
itervar replM 2
itervar replSearchM 1
param *.osgEarthScene.scene "\"Szenario_Hotel_Gabelbach.earth\""
param *.playgroundLatitude 50.6830269
param *.playgroundLongitude 10.8538055
param *.playgroundWidth 3500m
param *.playgroundHeight 3500m
param *.cs[0].posX 3537m
param *.cs[0].posY 965m
param *.cs[0].posZ 538m
param *.cs[1].posX 312m
param *.cs[1].posY 1262m
param *.cs[1].posZ 539m
param *.cs[2].posX 2185m
param *.cs[2].posY 3026m
param *.cs[2].posZ 777m
param *.cs[3].posX 10m
param *.cs[3].posY 2200m
param *.cs[3].posZ 560m
param *.cs[4].posX 750m
param *.cs[4].posY 200m
param *.cs[4].posZ 540m
param *.cs[5].posX 2450m
param *.cs[5].posY 180m
param *.cs[5].posZ 524m
param *.cs[6].posX 3140m
param *.cs[6].posY 1790m
param *.cs[6].posZ 606m
param *.numCSs 3
param *.uav[*].replacementMethod 2
param *.uav[*].weightedSumWeight 0.35
param *.missionControl.replacementSearchMethod 1
param *.numUAVs 95
param *.numCSs 3
param *.numUAVs 100
param *.*.timeStep 10s
param *.uav[*].commandPreviewCommandCount 20
param *.missionControl.missionFiles "\"missions\\\\Szenario_WB_Hotel_Gabelbach_Mission_Hotel.waypoints,missions\\\\Szenario_WB_Hotel_Gabelbach_Mission_Kickelhahn.waypoints,missions\\\\Szenario_WB_Hotel_Gabelbach_Mission_Ilmenau_Sportplatz.waypoints,missions\\\\Szenario_WB_Hotel_Gabelbach_Mission_Manebach_Mitte.waypoints,missions\\\\Szenario_WB_Hotel_Gabelbach_Mission_Manebach_Sued.waypoints,missions\\\\Szenario_WB_Hotel_Gabelbach_Hover_HoheSchlaufe.waypoints,missions\\\\Szenario_WB_Hotel_Gabelbach_Hover_Kickelhahn.waypoints,missions\\\\Szenario_WB_Hotel_Gabelbach_Hover_Gabelbachskopf.waypoints,missions\\\\Szenario_WB_Hotel_Gabelbach_Hover_Dachskopf.waypoints\""
param *.uav[0].startX 3537m
param *.uav[0].startY 965m
param *.uav[0].startZ 539m
param *.uav[1].startX 312m
param *.uav[1].startY 1262m
param *.uav[1].startZ 540m
param *.uav[2].startX 2185m
param *.uav[2].startY 3026m
param *.uav[2].startZ 778m
param *.uav[3].startX 3537m
param *.uav[3].startY 965m
param *.uav[3].startZ 539m
param *.uav[4].startX 312m
param *.uav[4].startY 1262m
param *.uav[4].startZ 540m
param *.uav[5].startX 2185m
param *.uav[5].startY 3026m
param *.uav[5].startZ 778m
param *.uav[6].startX 3537m
param *.uav[6].startY 965m
param *.uav[6].startZ 539m
param *.uav[7].startX 312m
param *.uav[7].startY 1262m
param *.uav[7].startZ 540m
param *.uav[8].startX 2185m
param *.uav[8].startY 3026m
param *.uav[8].startZ 778m
param *.uav[9].startX 3537m
param *.uav[9].startY 965m
param *.uav[9].startZ 539m
param *.uav[10].startX 3537m
param *.uav[10].startY 965m
param *.uav[10].startZ 539m
param *.uav[11].startX 312m
param *.uav[11].startY 1262m
param *.uav[11].startZ 540m
param *.uav[12].startX 2185m
param *.uav[12].startY 3026m
param *.uav[12].startZ 778m
param *.uav[13].startX 3537m
param *.uav[13].startY 965m
param *.uav[13].startZ 539m
param *.uav[14].startX 312m
param *.uav[14].startY 1262m
param *.uav[14].startZ 540m
param *.uav[15].startX 2185m
param *.uav[15].startY 3026m
param *.uav[15].startZ 778m
param *.uav[16].startX 3537m
param *.uav[16].startY 965m
param *.uav[16].startZ 539m
param *.uav[17].startX 312m
param *.uav[17].startY 1262m
param *.uav[17].startZ 540m
param *.uav[18].startX 2185m
param *.uav[18].startY 3026m
param *.uav[18].startZ 778m
param *.uav[19].startX 3537m
param *.uav[19].startY 965m
param *.uav[19].startZ 539m
param *.uav[20].startX 3537m
param *.uav[20].startY 965m
param *.uav[20].startZ 539m
param *.uav[21].startX 312m
param *.uav[21].startY 1262m
param *.uav[21].startZ 540m
param *.uav[22].startX 2185m
param *.uav[22].startY 3026m
param *.uav[22].startZ 778m
param *.uav[23].startX 3537m
param *.uav[23].startY 965m
param *.uav[23].startZ 539m
param *.uav[24].startX 312m
param *.uav[24].startY 1262m
param *.uav[24].startZ 540m
param *.uav[25].startX 2185m
param *.uav[25].startY 3026m
param *.uav[25].startZ 778m
param *.uav[26].startX 3537m
param *.uav[26].startY 965m
param *.uav[26].startZ 539m
param *.uav[27].startX 312m
param *.uav[27].startY 1262m
param *.uav[27].startZ 540m
param *.uav[28].startX 2185m
param *.uav[28].startY 3026m
param *.uav[28].startZ 778m
param *.uav[29].startX 3537m
param *.uav[29].startY 965m
param *.uav[29].startZ 539m
param *.uav[30].startX 3537m
param *.uav[30].startY 965m
param *.uav[30].startZ 539m
param *.uav[31].startX 312m
param *.uav[31].startY 1262m
param *.uav[31].startZ 540m
param *.uav[32].startX 2185m
param *.uav[32].startY 3026m
param *.uav[32].startZ 778m
param *.uav[33].startX 3537m
param *.uav[33].startY 965m
param *.uav[33].startZ 539m
param *.uav[34].startX 312m
param *.uav[34].startY 1262m
param *.uav[34].startZ 540m
param *.uav[35].startX 2185m
param *.uav[35].startY 3026m
param *.uav[35].startZ 778m
param *.uav[36].startX 3537m
param *.uav[36].startY 965m
param *.uav[36].startZ 539m
param *.uav[37].startX 312m
param *.uav[37].startY 1262m
param *.uav[37].startZ 540m
param *.uav[38].startX 2185m
param *.uav[38].startY 3026m
param *.uav[38].startZ 778m
param *.uav[39].startX 3537m
param *.uav[39].startY 965m
param *.uav[39].startZ 539m
param *.uav[40].startX 3537m
param *.uav[40].startY 965m
param *.uav[40].startZ 539m
param *.uav[41].startX 312m
param *.uav[41].startY 1262m
param *.uav[41].startZ 540m
param *.uav[42].startX 2185m
param *.uav[42].startY 3026m
param *.uav[42].startZ 778m
param *.uav[43].startX 3537m
param *.uav[43].startY 965m
param *.uav[43].startZ 539m
param *.uav[44].startX 312m
param *.uav[44].startY 1262m
param *.uav[44].startZ 540m
param *.uav[45].startX 2185m
param *.uav[45].startY 3026m
param *.uav[45].startZ 778m
param *.uav[46].startX 3537m
param *.uav[46].startY 965m
param *.uav[46].startZ 539m
param *.uav[47].startX 312m
param *.uav[47].startY 1262m
param *.uav[47].startZ 540m
param *.uav[48].startX 2185m
param *.uav[48].startY 3026m
param *.uav[48].startZ 778m
param *.uav[49].startX 3537m
param *.uav[49].startY 965m
param *.uav[49].startZ 539m
param *.uav[50].startX 3537m
param *.uav[50].startY 965m
param *.uav[50].startZ 539m
param *.uav[51].startX 312m
param *.uav[51].startY 1262m
param *.uav[51].startZ 540m
param *.uav[52].startX 2185m
param *.uav[52].startY 3026m
param *.uav[52].startZ 778m
param *.uav[53].startX 3537m
param *.uav[53].startY 965m
param *.uav[53].startZ 539m
param *.uav[54].startX 312m
param *.uav[54].startY 1262m
param *.uav[54].startZ 540m
param *.uav[55].startX 2185m
param *.uav[55].startY 3026m
param *.uav[55].startZ 778m
param *.uav[56].startX 3537m
param *.uav[56].startY 965m
param *.uav[56].startZ 539m
param *.uav[57].startX 312m
param *.uav[57].startY 1262m
param *.uav[57].startZ 540m
param *.uav[58].startX 2185m
param *.uav[58].startY 3026m
param *.uav[58].startZ 778m
param *.uav[59].startX 3537m
param *.uav[59].startY 965m
param *.uav[59].startZ 539m
param *.uav[60].startX 3537m
param *.uav[60].startY 965m
param *.uav[60].startZ 539m
param *.uav[61].startX 312m
param *.uav[61].startY 1262m
param *.uav[61].startZ 540m
param *.uav[62].startX 2185m
param *.uav[62].startY 3026m
param *.uav[62].startZ 778m
param *.uav[63].startX 3537m
param *.uav[63].startY 965m
param *.uav[63].startZ 539m
param *.uav[64].startX 312m
param *.uav[64].startY 1262m
param *.uav[64].startZ 540m
param *.uav[65].startX 2185m
param *.uav[65].startY 3026m
param *.uav[65].startZ 778m
param *.uav[66].startX 3537m
param *.uav[66].startY 965m
param *.uav[66].startZ 539m
param *.uav[67].startX 312m
param *.uav[67].startY 1262m
param *.uav[67].startZ 540m
param *.uav[68].startX 2185m
param *.uav[68].startY 3026m
param *.uav[68].startZ 778m
param *.uav[69].startX 3537m
param *.uav[69].startY 965m
param *.uav[69].startZ 539m
param *.uav[70].startX 3537m
param *.uav[70].startY 965m
param *.uav[70].startZ 539m
param *.uav[71].startX 312m
param *.uav[71].startY 1262m
param *.uav[71].startZ 540m
param *.uav[72].startX 2185m
param *.uav[72].startY 3026m
param *.uav[72].startZ 778m
param *.uav[73].startX 3537m
param *.uav[73].startY 965m
param *.uav[73].startZ 539m
param *.uav[74].startX 312m
param *.uav[74].startY 1262m
param *.uav[74].startZ 540m
param *.uav[75].startX 2185m
param *.uav[75].startY 3026m
param *.uav[75].startZ 778m
param *.uav[76].startX 3537m
param *.uav[76].startY 965m
param *.uav[76].startZ 539m
param *.uav[77].startX 312m
param *.uav[77].startY 1262m
param *.uav[77].startZ 540m
param *.uav[78].startX 2185m
param *.uav[78].startY 3026m
param *.uav[78].startZ 778m
param *.uav[79].startX 3537m
param *.uav[79].startY 965m
param *.uav[79].startZ 539m
param *.uav[80].startX 3537m
param *.uav[80].startY 965m
param *.uav[80].startZ 539m
param *.uav[81].startX 312m
param *.uav[81].startY 1262m
param *.uav[81].startZ 540m
param *.uav[82].startX 2185m
param *.uav[82].startY 3026m
param *.uav[82].startZ 778m
param *.uav[83].startX 3537m
param *.uav[83].startY 965m
param *.uav[83].startZ 539m
param *.uav[84].startX 312m
param *.uav[84].startY 1262m
param *.uav[84].startZ 540m
param *.uav[85].startX 2185m
param *.uav[85].startY 3026m
param *.uav[85].startZ 778m
param *.uav[86].startX 3537m
param *.uav[86].startY 965m
param *.uav[86].startZ 539m
param *.uav[87].startX 312m
param *.uav[87].startY 1262m
param *.uav[87].startZ 540m
param *.uav[88].startX 2185m
param *.uav[88].startY 3026m
param *.uav[88].startZ 778m
param *.uav[89].startX 3537m
param *.uav[89].startY 965m
param *.uav[89].startZ 539m
param *.uav[90].startX 3537m
param *.uav[90].startY 965m
param *.uav[90].startZ 539m
param *.uav[91].startX 312m
param *.uav[91].startY 1262m
param *.uav[91].startZ 540m
param *.uav[92].startX 2185m
param *.uav[92].startY 3026m
param *.uav[92].startZ 778m
param *.uav[93].startX 3537m
param *.uav[93].startY 965m
param *.uav[93].startZ 539m
param *.uav[94].startX 312m
param *.uav[94].startY 1262m
param *.uav[94].startZ 540m
param *.uav[95].startX 2185m
param *.uav[95].startY 3026m
param *.uav[95].startZ 778m
param *.uav[96].startX 3537m
param *.uav[96].startY 965m
param *.uav[96].startZ 539m
param *.uav[97].startX 312m
param *.uav[97].startY 1262m
param *.uav[97].startZ 540m
param *.uav[98].startX 2185m
param *.uav[98].startY 3026m
param *.uav[98].startZ 778m
param *.uav[99].startX 3537m
param *.uav[99].startY 965m
param *.uav[99].startZ 539m
param *.osgEarthScene.scene "\"boston.earth\""
param *.playgroundLatitude 42.3558
param *.playgroundLongitude -71.0677
param *.playgroundWidth 400m
param *.playgroundHeight 200m
param *.channelController.connectionColor "\"#0000FF40\""
param *.channelController.showConnections false
param *.uav[*].modelURL "\"quadrocopter.small.obj.15.scale.0,0,90.rot\""
param *.uav[*].labelColor "\"#FF7C00CC\""
param *.uav[*].label2Color "\"#FF7C00EE\""
param *.uav[*].batteryCapacity 5200mAh
param *.uav[*].batteryRemaining uav[index].batteryCapacity
param *.uav[*].predictionQuantile 0.95
param *.uav[*].replacementMethod 2
param *.uav[*].weightedSumWeight 0.5
param *.cs[*].modelURL "\"chargingstation_v1.osgt.2.scale.0,0,0.rot.0,0,-15e-1.trans\""
param *.cs[*].spotsWaiting 999
param *.cs[*].spotsCharging 999
param *.cs[*].chargeEffectivenessPercentage 100
param *.cs[*].nonLinearPhaseStartPercentage 85
param *.cs[*].chargeCurrent 6.0A
param *.cs[*].prioritizeFastCharge true
param *.missionControl.replacementSearchMethod 0
param *.*.timeStep 9s

scalar OsgEarthNet.uav[0] utilizationSecMission 480
scalar OsgEarthNet.uav[0] utilizationSecMaintenance 447.1303002674
scalar OsgEarthNet.uav[0] utilizationSecCharge 3570
scalar OsgEarthNet.uav[0] utilizationSecIdle 254702.86869973
scalar OsgEarthNet.uav[0] utilizationEnergyMission 2297.3905448914
scalar OsgEarthNet.uav[0] utilizationEnergyMaintenance 2114.4431266785
scalar OsgEarthNet.uav[0] utilizationEnergyCharge 4613.2622070312
scalar OsgEarthNet.uav[0] utilizationEnergyOverdrawMission 0
scalar OsgEarthNet.uav[0] utilizationEnergyOverdrawMaintenance 0
scalar OsgEarthNet.uav[0] utilizationCountMissions 1
scalar OsgEarthNet.uav[0] utilizationCountManeuversMission 24
scalar OsgEarthNet.uav[0] utilizationCountManeuversMaintenance 2
scalar OsgEarthNet.uav[0] utilizationCountChargeState 1
scalar OsgEarthNet.uav[0] utilizationCountOverdrawnAfterMission 0
scalar OsgEarthNet.uav[0] utilizationCountIdleState 2
scalar OsgEarthNet.uav[0] utilizationFail 0
scalar OsgEarthNet.uav[0] simulationTime 259200
scalar OsgEarthNet.uav[1] utilizationSecMission 896.35009812453
scalar OsgEarthNet.uav[1] utilizationSecMaintenance 581.14111332504
scalar OsgEarthNet.uav[1] utilizationSecCharge 5930
scalar OsgEarthNet.uav[1] utilizationSecIdle 251792.50778855
scalar OsgEarthNet.uav[1] utilizationEnergyMission 4287.0293579101
scalar OsgEarthNet.uav[1] utilizationEnergyMaintenance 2688.6729774475
scalar OsgEarthNet.uav[1] utilizationEnergyCharge 6975.7028808594
scalar OsgEarthNet.uav[1] utilizationEnergyOverdrawMission 0
scalar OsgEarthNet.uav[1] utilizationEnergyOverdrawMaintenance 0
scalar OsgEarthNet.uav[1] utilizationCountMissions 2
scalar OsgEarthNet.uav[1] utilizationCountManeuversMission 15
scalar OsgEarthNet.uav[1] utilizationCountManeuversMaintenance 4
scalar OsgEarthNet.uav[1] utilizationCountChargeState 2
scalar OsgEarthNet.uav[1] utilizationCountOverdrawnAfterMission 0
scalar OsgEarthNet.uav[1] utilizationCountIdleState 3
scalar OsgEarthNet.uav[1] utilizationFail 0
scalar OsgEarthNet.uav[1] simulationTime 259200
scalar OsgEarthNet.uav[2] utilizationSecMission 41859.598509875
scalar OsgEarthNet.uav[2] utilizationSecMaintenance 18748.343758161
scalar OsgEarthNet.uav[2] utilizationSecCharge 194901.35629032
scalar OsgEarthNet.uav[2] utilizationSecIdle 3690.7004416429
scalar OsgEarthNet.uav[2] utilizationEnergyMission 205185.86726379
scalar OsgEarthNet.uav[2] utilizationEnergyMaintenance 86819.733440399
scalar OsgEarthNet.uav[2] utilizationEnergyCharge 288485.67041016
scalar OsgEarthNet.uav[2] utilizationEnergyOverdrawMission 0
scalar OsgEarthNet.uav[2] utilizationEnergyOverdrawMaintenance 0
scalar OsgEarthNet.uav[2] utilizationCountMissions 64
scalar OsgEarthNet.uav[2] utilizationCountManeuversMission 1444
scalar OsgEarthNet.uav[2] utilizationCountManeuversMaintenance 128
scalar OsgEarthNet.uav[2] utilizationCountChargeState 64
scalar OsgEarthNet.uav[2] utilizationCountOverdrawnAfterMission 0
scalar OsgEarthNet.uav[2] utilizationCountIdleState 4
scalar OsgEarthNet.uav[2] utilizationFail 0
scalar OsgEarthNet.uav[2] simulationTime 259200
scalar OsgEarthNet.uav[3] utilizationSecMission 1660.6251525803
scalar OsgEarthNet.uav[3] utilizationSecMaintenance 1175.1155592225
scalar OsgEarthNet.uav[3] utilizationSecCharge 10660
scalar OsgEarthNet.uav[3] utilizationSecIdle 245704.2582882
scalar OsgEarthNet.uav[3] utilizationEnergyMission 8025.6154632568
scalar OsgEarthNet.uav[3] utilizationEnergyMaintenance 5663.481967926
scalar OsgEarthNet.uav[3] utilizationEnergyCharge 13773.189941406
scalar OsgEarthNet.uav[3] utilizationEnergyOverdrawMission 0
scalar OsgEarthNet.uav[3] utilizationEnergyOverdrawMaintenance 0
scalar OsgEarthNet.uav[3] utilizationCountMissions 3
scalar OsgEarthNet.uav[3] utilizationCountManeuversMission 57
scalar OsgEarthNet.uav[3] utilizationCountManeuversMaintenance 6
scalar OsgEarthNet.uav[3] utilizationCountChargeState 3
scalar OsgEarthNet.uav[3] utilizationCountOverdrawnAfterMission 0
scalar OsgEarthNet.uav[3] utilizationCountIdleState 4
scalar OsgEarthNet.uav[3] utilizationFail 0
scalar OsgEarthNet.uav[3] simulationTime 259200
scalar OsgEarthNet.uav[4] utilizationSecMission 42630.439915665
scalar OsgEarthNet.uav[4] utilizationSecMaintenance 17774.754002085
scalar OsgEarthNet.uav[4] utilizationSecCharge 194596.35838316
scalar OsgEarthNet.uav[4] utilizationSecIdle 4198.4466990871
scalar OsgEarthNet.uav[4] utilizationEnergyMission 203364.60450363
scalar OsgEarthNet.uav[4] utilizationEnergyMaintenance 82444.626850128
scalar OsgEarthNet.uav[4] utilizationEnergyCharge 283145.35498047
scalar OsgEarthNet.uav[4] utilizationEnergyOverdrawMission 0
scalar OsgEarthNet.uav[4] utilizationEnergyOverdrawMaintenance 0
scalar OsgEarthNet.uav[4] utilizationCountMissions 62
scalar OsgEarthNet.uav[4] utilizationCountManeuversMission 1165
scalar OsgEarthNet.uav[4] utilizationCountManeuversMaintenance 124
scalar OsgEarthNet.uav[4] utilizationCountChargeState 62
scalar OsgEarthNet.uav[4] utilizationCountOverdrawnAfterMission 0
scalar OsgEarthNet.uav[4] utilizationCountIdleState 3
scalar OsgEarthNet.uav[4] utilizationFail 0
scalar OsgEarthNet.uav[4] simulationTime 259200
scalar OsgEarthNet.uav[5] utilizationSecMission 42424.521413551
scalar OsgEarthNet.uav[5] utilizationSecMaintenance 17766.611248906
scalar OsgEarthNet.uav[5] utilizationSecCharge 197566.86433754
scalar OsgEarthNet.uav[5] utilizationSecIdle 1442.002
scalar OsgEarthNet.uav[5] utilizationEnergyMission 205751.81798172
scalar OsgEarthNet.uav[5] utilizationEnergyMaintenance 82459.278614044
scalar OsgEarthNet.uav[5] utilizationEnergyCharge 287748.72705078
scalar OsgEarthNet.uav[5] utilizationEnergyOverdrawMission 0
scalar OsgEarthNet.uav[5] utilizationEnergyOverdrawMaintenance 0
scalar OsgEarthNet.uav[5] utilizationCountMissions 63
scalar OsgEarthNet.uav[5] utilizationCountManeuversMission 1277
scalar OsgEarthNet.uav[5] utilizationCountManeuversMaintenance 126
scalar OsgEarthNet.uav[5] utilizationCountChargeState 63
scalar OsgEarthNet.uav[5] utilizationCountOverdrawnAfterMission 0
scalar OsgEarthNet.uav[5] utilizationCountIdleState 1
scalar OsgEarthNet.uav[5] utilizationFail 0
scalar OsgEarthNet.uav[5] simulationTime 259200
scalar OsgEarthNet.uav[6] utilizationSecMission 4681.2503051606
scalar OsgEarthNet.uav[6] utilizationSecMaintenance 3605.4604036072
scalar OsgEarthNet.uav[6] utilizationSecCharge 31250
scalar OsgEarthNet.uav[6] utilizationSecIdle 219663.28829123
scalar OsgEarthNet.uav[6] utilizationEnergyMission 23212.493961334
scalar OsgEarthNet.uav[6] utilizationEnergyMaintenance 16900.713939667
scalar OsgEarthNet.uav[6] utilizationEnergyCharge 40008.8828125
scalar OsgEarthNet.uav[6] utilizationEnergyOverdrawMission 0
scalar OsgEarthNet.uav[6] utilizationEnergyOverdrawMaintenance 0
scalar OsgEarthNet.uav[6] utilizationCountMissions 9
scalar OsgEarthNet.uav[6] utilizationCountManeuversMission 182
scalar OsgEarthNet.uav[6] utilizationCountManeuversMaintenance 18
scalar OsgEarthNet.uav[6] utilizationCountChargeState 9
scalar OsgEarthNet.uav[6] utilizationCountOverdrawnAfterMission 0
scalar OsgEarthNet.uav[6] utilizationCountIdleState 10
scalar OsgEarthNet.uav[6] utilizationFail 0
scalar OsgEarthNet.uav[6] simulationTime 259200
scalar OsgEarthNet.uav[7] utilizationSecMission 16369.175423453
scalar OsgEarthNet.uav[7] utilizationSecMaintenance 13103.779911354
scalar OsgEarthNet.uav[7] utilizationSecCharge 114742.43177568
scalar OsgEarthNet.uav[7] utilizationSecIdle 114984.61188952
scalar OsgEarthNet.uav[7] utilizationEnergyMission 80951.279773712
scalar OsgEarthNet.uav[7] utilizationEnergyMaintenance 62050.168224335
scalar OsgEarthNet.uav[7] utilizationEnergyCharge 138060.88397217
scalar OsgEarthNet.uav[7] utilizationEnergyOverdrawMission 0
scalar OsgEarthNet.uav[7] utilizationEnergyOverdrawMaintenance 0
scalar OsgEarthNet.uav[7] utilizationCountMissions 39
scalar OsgEarthNet.uav[7] utilizationCountManeuversMission 585
scalar OsgEarthNet.uav[7] utilizationCountManeuversMaintenance 78
scalar OsgEarthNet.uav[7] utilizationCountChargeState 39
scalar OsgEarthNet.uav[7] utilizationCountOverdrawnAfterMission 0
scalar OsgEarthNet.uav[7] utilizationCountIdleState 39
scalar OsgEarthNet.uav[7] utilizationFail 0
scalar OsgEarthNet.uav[7] simulationTime 259200
scalar OsgEarthNet.uav[8] utilizationSecMission 42795.599094799
scalar OsgEarthNet.uav[8] utilizationSecMaintenance 18228.944251798
scalar OsgEarthNet.uav[8] utilizationSecCharge 195670
scalar OsgEarthNet.uav[8] utilizationSecIdle 2505.4556534032
scalar OsgEarthNet.uav[8] utilizationEnergyMission 204339.15696557
scalar OsgEarthNet.uav[8] utilizationEnergyMaintenance 83917.576488495
scalar OsgEarthNet.uav[8] utilizationEnergyCharge 284729.94091797
scalar OsgEarthNet.uav[8] utilizationEnergyOverdrawMission 0
scalar OsgEarthNet.uav[8] utilizationEnergyOverdrawMaintenance 0
scalar OsgEarthNet.uav[8] utilizationCountMissions 62
scalar OsgEarthNet.uav[8] utilizationCountManeuversMission 1152
scalar OsgEarthNet.uav[8] utilizationCountManeuversMaintenance 125
scalar OsgEarthNet.uav[8] utilizationCountChargeState 62
scalar OsgEarthNet.uav[8] utilizationCountOverdrawnAfterMission 0
scalar OsgEarthNet.uav[8] utilizationCountIdleState 4
scalar OsgEarthNet.uav[8] utilizationFail 0
scalar OsgEarthNet.uav[8] simulationTime 259200
scalar OsgEarthNet.uav[9] utilizationSecMission 1760.6251525803
scalar OsgEarthNet.uav[9] utilizationSecMaintenance 1087.7482372535
scalar OsgEarthNet.uav[9] utilizationSecCharge 10580
scalar OsgEarthNet.uav[9] utilizationSecIdle 245771.62561017
scalar OsgEarthNet.uav[9] utilizationEnergyMission 8773.5731582642
scalar OsgEarthNet.uav[9] utilizationEnergyMaintenance 5246.569858551
scalar OsgEarthNet.uav[9] utilizationEnergyCharge 13715.520996094
scalar OsgEarthNet.uav[9] utilizationEnergyOverdrawMission 0
scalar OsgEarthNet.uav[9] utilizationEnergyOverdrawMaintenance 0
scalar OsgEarthNet.uav[9] utilizationCountMissions 3
scalar OsgEarthNet.uav[9] utilizationCountManeuversMission 62
scalar OsgEarthNet.uav[9] utilizationCountManeuversMaintenance 6
scalar OsgEarthNet.uav[9] utilizationCountChargeState 3
scalar OsgEarthNet.uav[9] utilizationCountOverdrawnAfterMission 0
scalar OsgEarthNet.uav[9] utilizationCountIdleState 4
scalar OsgEarthNet.uav[9] utilizationFail 0
scalar OsgEarthNet.uav[9] simulationTime 259200
scalar OsgEarthNet.uav[10] utilizationSecMission 5351.6174189903
scalar OsgEarthNet.uav[10] utilizationSecMaintenance 3744.3712915324
scalar OsgEarthNet.uav[10] utilizationSecCharge 34890
scalar OsgEarthNet.uav[10] utilizationSecIdle 215214.01028948
scalar OsgEarthNet.uav[10] utilizationEnergyMission 27157.033531189
scalar OsgEarthNet.uav[10] utilizationEnergyMaintenance 17857.53490448
scalar OsgEarthNet.uav[10] utilizationEnergyCharge 44778.857421875
scalar OsgEarthNet.uav[10] utilizationEnergyOverdrawMission 0
scalar OsgEarthNet.uav[10] utilizationEnergyOverdrawMaintenance 0
scalar OsgEarthNet.uav[10] utilizationCountMissions 10
scalar OsgEarthNet.uav[10] utilizationCountManeuversMission 194
scalar OsgEarthNet.uav[10] utilizationCountManeuversMaintenance 20
scalar OsgEarthNet.uav[10] utilizationCountChargeState 10
scalar OsgEarthNet.uav[10] utilizationCountOverdrawnAfterMission 0
scalar OsgEarthNet.uav[10] utilizationCountIdleState 11
scalar OsgEarthNet.uav[10] utilizationFail 0
scalar OsgEarthNet.uav[10] simulationTime 259200
scalar OsgEarthNet.uav[11] utilizationSecMission 14753.7486165
scalar OsgEarthNet.uav[11] utilizationSecMaintenance 10000.344694896
scalar OsgEarthNet.uav[11] utilizationSecCharge 95980
scalar OsgEarthNet.uav[11] utilizationSecIdle 138465.9056886
scalar OsgEarthNet.uav[11] utilizationEnergyMission 70475.160694122
scalar OsgEarthNet.uav[11] utilizationEnergyMaintenance 47221.550239563
scalar OsgEarthNet.uav[11] utilizationEnergyCharge 118742.10327148
scalar OsgEarthNet.uav[11] utilizationEnergyOverdrawMission 0
scalar OsgEarthNet.uav[11] utilizationEnergyOverdrawMaintenance 0
scalar OsgEarthNet.uav[11] utilizationCountMissions 30
scalar OsgEarthNet.uav[11] utilizationCountManeuversMission 477
scalar OsgEarthNet.uav[11] utilizationCountManeuversMaintenance 60
scalar OsgEarthNet.uav[11] utilizationCountChargeState 30
scalar OsgEarthNet.uav[11] utilizationCountOverdrawnAfterMission 0
scalar OsgEarthNet.uav[11] utilizationCountIdleState 31
scalar OsgEarthNet.uav[11] utilizationFail 0
scalar OsgEarthNet.uav[11] simulationTime 259200
scalar OsgEarthNet.uav[12] utilizationSecMission 43342.352321249
scalar OsgEarthNet.uav[12] utilizationSecMaintenance 18745.646678751
scalar OsgEarthNet.uav[12] utilizationSecCharge 196580
scalar OsgEarthNet.uav[12] utilizationSecIdle 532
scalar OsgEarthNet.uav[12] utilizationEnergyMission 207630.35369873
scalar OsgEarthNet.uav[12] utilizationEnergyMaintenance 86358.285789022
scalar OsgEarthNet.uav[12] utilizationEnergyCharge 288889.70556641
scalar OsgEarthNet.uav[12] utilizationEnergyOverdrawMission 0
scalar OsgEarthNet.uav[12] utilizationEnergyOverdrawMaintenance 0
scalar OsgEarthNet.uav[12] utilizationCountMissions 64
scalar OsgEarthNet.uav[12] utilizationCountManeuversMission 1176
scalar OsgEarthNet.uav[12] utilizationCountManeuversMaintenance 128
scalar OsgEarthNet.uav[12] utilizationCountChargeState 63
scalar OsgEarthNet.uav[12] utilizationCountOverdrawnAfterMission 0
scalar OsgEarthNet.uav[12] utilizationCountIdleState 6
scalar OsgEarthNet.uav[12] utilizationFail 0
scalar OsgEarthNet.uav[12] simulationTime 259200
scalar OsgEarthNet.uav[13] utilizationSecMission 43791.662507551
scalar OsgEarthNet.uav[13] utilizationSecMaintenance 18125.279422568
scalar OsgEarthNet.uav[13] utilizationSecCharge 197091.05706988
scalar OsgEarthNet.uav[13] utilizationSecIdle 192
scalar OsgEarthNet.uav[13] utilizationEnergyMission 209526.80779266
scalar OsgEarthNet.uav[13] utilizationEnergyMaintenance 83403.333953857
scalar OsgEarthNet.uav[13] utilizationEnergyCharge 287712.60693359
scalar OsgEarthNet.uav[13] utilizationEnergyOverdrawMission 0
scalar OsgEarthNet.uav[13] utilizationEnergyOverdrawMaintenance 0
scalar OsgEarthNet.uav[13] utilizationCountMissions 64
scalar OsgEarthNet.uav[13] utilizationCountManeuversMission 1146
scalar OsgEarthNet.uav[13] utilizationCountManeuversMaintenance 127
scalar OsgEarthNet.uav[13] utilizationCountChargeState 64
scalar OsgEarthNet.uav[13] utilizationCountOverdrawnAfterMission 0
scalar OsgEarthNet.uav[13] utilizationCountIdleState 4
scalar OsgEarthNet.uav[13] utilizationFail 0
scalar OsgEarthNet.uav[13] simulationTime 259200
scalar OsgEarthNet.uav[14] utilizationSecMission 11850.593985133
scalar OsgEarthNet.uav[14] utilizationSecMaintenance 7677.365313028
scalar OsgEarthNet.uav[14] utilizationSecCharge 74820
scalar OsgEarthNet.uav[14] utilizationSecIdle 164852.03970184
scalar OsgEarthNet.uav[14] utilizationEnergyMission 56815.514247894
scalar OsgEarthNet.uav[14] utilizationEnergyMaintenance 36261.29567337
scalar OsgEarthNet.uav[14] utilizationEnergyCharge 93270.61328125
scalar OsgEarthNet.uav[14] utilizationEnergyOverdrawMission 0
scalar OsgEarthNet.uav[14] utilizationEnergyOverdrawMaintenance 0
scalar OsgEarthNet.uav[14] utilizationCountMissions 23
scalar OsgEarthNet.uav[14] utilizationCountManeuversMission 377
scalar OsgEarthNet.uav[14] utilizationCountManeuversMaintenance 46
scalar OsgEarthNet.uav[14] utilizationCountChargeState 23
scalar OsgEarthNet.uav[14] utilizationCountOverdrawnAfterMission 0
scalar OsgEarthNet.uav[14] utilizationCountIdleState 24
scalar OsgEarthNet.uav[14] utilizationFail 0
scalar OsgEarthNet.uav[14] simulationTime 259200
scalar OsgEarthNet.uav[15] utilizationSecMission 42937.79463597
scalar OsgEarthNet.uav[15] utilizationSecMaintenance 18145.854143209
scalar OsgEarthNet.uav[15] utilizationSecCharge 196210
scalar OsgEarthNet.uav[15] utilizationSecIdle 1906.3502208215
scalar OsgEarthNet.uav[15] utilizationEnergyMission 209522.72531515
scalar OsgEarthNet.uav[15] utilizationEnergyMaintenance 83178.703754425
scalar OsgEarthNet.uav[15] utilizationEnergyCharge 288882.34912109
scalar OsgEarthNet.uav[15] utilizationEnergyOverdrawMission 0
scalar OsgEarthNet.uav[15] utilizationEnergyOverdrawMaintenance 0
scalar OsgEarthNet.uav[15] utilizationCountMissions 63
scalar OsgEarthNet.uav[15] utilizationCountManeuversMission 1384
scalar OsgEarthNet.uav[15] utilizationCountManeuversMaintenance 127
scalar OsgEarthNet.uav[15] utilizationCountChargeState 63
scalar OsgEarthNet.uav[15] utilizationCountOverdrawnAfterMission 0
scalar OsgEarthNet.uav[15] utilizationCountIdleState 2
scalar OsgEarthNet.uav[15] utilizationFail 0
scalar OsgEarthNet.uav[15] simulationTime 259200
scalar OsgEarthNet.uav[16] utilizationSecMission 4312.2425715706
scalar OsgEarthNet.uav[16] utilizationSecMaintenance 2235.2179784469
scalar OsgEarthNet.uav[16] utilizationSecCharge 24910
scalar OsgEarthNet.uav[16] utilizationSecIdle 227742.53844998
scalar OsgEarthNet.uav[16] utilizationEnergyMission 21600.602039337
scalar OsgEarthNet.uav[16] utilizationEnergyMaintenance 10826.560993195
scalar OsgEarthNet.uav[16] utilizationEnergyCharge 32347.710449219
scalar OsgEarthNet.uav[16] utilizationEnergyOverdrawMission 0
scalar OsgEarthNet.uav[16] utilizationEnergyOverdrawMaintenance 0
scalar OsgEarthNet.uav[16] utilizationCountMissions 7
scalar OsgEarthNet.uav[16] utilizationCountManeuversMission 116
scalar OsgEarthNet.uav[16] utilizationCountManeuversMaintenance 14
scalar OsgEarthNet.uav[16] utilizationCountChargeState 7
scalar OsgEarthNet.uav[16] utilizationCountOverdrawnAfterMission 0
scalar OsgEarthNet.uav[16] utilizationCountIdleState 8
scalar OsgEarthNet.uav[16] utilizationFail 0
scalar OsgEarthNet.uav[16] simulationTime 259200
scalar OsgEarthNet.uav[17] utilizationSecMission 11654.450686872
scalar OsgEarthNet.uav[17] utilizationSecMaintenance 7963.5475867516
scalar OsgEarthNet.uav[17] utilizationSecCharge 76570
scalar OsgEarthNet.uav[17] utilizationSecIdle 163012.00072638
scalar OsgEarthNet.uav[17] utilizationEnergyMission 57380.929065704
scalar OsgEarthNet.uav[17] utilizationEnergyMaintenance 37953.822399139
scalar OsgEarthNet.uav[17] utilizationEnergyCharge 94663.838623047
scalar OsgEarthNet.uav[17] utilizationEnergyOverdrawMission 0
scalar OsgEarthNet.uav[17] utilizationEnergyOverdrawMaintenance 0
scalar OsgEarthNet.uav[17] utilizationCountMissions 24
scalar OsgEarthNet.uav[17] utilizationCountManeuversMission 374
scalar OsgEarthNet.uav[17] utilizationCountManeuversMaintenance 48
scalar OsgEarthNet.uav[17] utilizationCountChargeState 24
scalar OsgEarthNet.uav[17] utilizationCountOverdrawnAfterMission 0
scalar OsgEarthNet.uav[17] utilizationCountIdleState 25
scalar OsgEarthNet.uav[17] utilizationFail 0
scalar OsgEarthNet.uav[17] simulationTime 259200
scalar OsgEarthNet.uav[18] utilizationSecMission 42383.354714491
scalar OsgEarthNet.uav[18] utilizationSecMaintenance 18084.046588328
scalar OsgEarthNet.uav[18] utilizationSecCharge 196941.14473846
scalar OsgEarthNet.uav[18] utilizationSecIdle 1791.4529587171
scalar OsgEarthNet.uav[18] utilizationEnergyMission 206216.92840576
scalar OsgEarthNet.uav[18] utilizationEnergyMaintenance 84271.207077026
scalar OsgEarthNet.uav[18] utilizationEnergyCharge 289801.40771484
scalar OsgEarthNet.uav[18] utilizationEnergyOverdrawMission 0
scalar OsgEarthNet.uav[18] utilizationEnergyOverdrawMaintenance 0
scalar OsgEarthNet.uav[18] utilizationCountMissions 63
scalar OsgEarthNet.uav[18] utilizationCountManeuversMission 1219
scalar OsgEarthNet.uav[18] utilizationCountManeuversMaintenance 126
scalar OsgEarthNet.uav[18] utilizationCountChargeState 63
scalar OsgEarthNet.uav[18] utilizationCountOverdrawnAfterMission 0
scalar OsgEarthNet.uav[18] utilizationCountIdleState 4
scalar OsgEarthNet.uav[18] utilizationFail 0
scalar OsgEarthNet.uav[18] simulationTime 259200
scalar OsgEarthNet.uav[19] utilizationSecMission 5021.8754577408
scalar OsgEarthNet.uav[19] utilizationSecMaintenance 3361.2462074363
scalar OsgEarthNet.uav[19] utilizationSecCharge 31560
scalar OsgEarthNet.uav[19] utilizationSecIdle 219256.87733482
scalar OsgEarthNet.uav[19] utilizationEnergyMission 25448.573757172
scalar OsgEarthNet.uav[19] utilizationEnergyMaintenance 15886.088493347
scalar OsgEarthNet.uav[19] utilizationEnergyCharge 40558.395507812
scalar OsgEarthNet.uav[19] utilizationEnergyOverdrawMission 0
scalar OsgEarthNet.uav[19] utilizationEnergyOverdrawMaintenance 0
scalar OsgEarthNet.uav[19] utilizationCountMissions 9
scalar OsgEarthNet.uav[19] utilizationCountManeuversMission 173
scalar OsgEarthNet.uav[19] utilizationCountManeuversMaintenance 18
scalar OsgEarthNet.uav[19] utilizationCountChargeState 9
scalar OsgEarthNet.uav[19] utilizationCountOverdrawnAfterMission 0
scalar OsgEarthNet.uav[19] utilizationCountIdleState 10
scalar OsgEarthNet.uav[19] utilizationFail 0
scalar OsgEarthNet.uav[19] simulationTime 259200
scalar OsgEarthNet.uav[20] utilizationSecMission 5532.7586490717
scalar OsgEarthNet.uav[20] utilizationSecMaintenance 3238.6120143608
scalar OsgEarthNet.uav[20] utilizationSecCharge 32110
scalar OsgEarthNet.uav[20] utilizationSecIdle 218318.62833657
scalar OsgEarthNet.uav[20] utilizationEnergyMission 26381.575065613
scalar OsgEarthNet.uav[20] utilizationEnergyMaintenance 15229.260753632
scalar OsgEarthNet.uav[20] utilizationEnergyCharge 41467.977050781
scalar OsgEarthNet.uav[20] utilizationEnergyOverdrawMission 0
scalar OsgEarthNet.uav[20] utilizationEnergyOverdrawMaintenance 0
scalar OsgEarthNet.uav[20] utilizationCountMissions 9
scalar OsgEarthNet.uav[20] utilizationCountManeuversMission 168
scalar OsgEarthNet.uav[20] utilizationCountManeuversMaintenance 18
scalar OsgEarthNet.uav[20] utilizationCountChargeState 9
scalar OsgEarthNet.uav[20] utilizationCountOverdrawnAfterMission 0
scalar OsgEarthNet.uav[20] utilizationCountIdleState 10
scalar OsgEarthNet.uav[20] utilizationFail 0
scalar OsgEarthNet.uav[20] simulationTime 259200
scalar OsgEarthNet.uav[21] utilizationSecMission 14038.30738861
scalar OsgEarthNet.uav[21] utilizationSecMaintenance 10207.753449969
scalar OsgEarthNet.uav[21] utilizationSecCharge 92231.927161421
scalar OsgEarthNet.uav[21] utilizationSecIdle 142722.011
scalar OsgEarthNet.uav[21] utilizationEnergyMission 68158.018501282
scalar OsgEarthNet.uav[21] utilizationEnergyMaintenance 48834.219062805
scalar OsgEarthNet.uav[21] utilizationEnergyCharge 113883.53393555
scalar OsgEarthNet.uav[21] utilizationEnergyOverdrawMission 0
scalar OsgEarthNet.uav[21] utilizationEnergyOverdrawMaintenance 0
scalar OsgEarthNet.uav[21] utilizationCountMissions 30
scalar OsgEarthNet.uav[21] utilizationCountManeuversMission 500
scalar OsgEarthNet.uav[21] utilizationCountManeuversMaintenance 60
scalar OsgEarthNet.uav[21] utilizationCountChargeState 30
scalar OsgEarthNet.uav[21] utilizationCountOverdrawnAfterMission 0
scalar OsgEarthNet.uav[21] utilizationCountIdleState 30
scalar OsgEarthNet.uav[21] utilizationFail 0
scalar OsgEarthNet.uav[21] simulationTime 259200
scalar OsgEarthNet.uav[22] utilizationSecMission 42749.830439304
scalar OsgEarthNet.uav[22] utilizationSecMaintenance 18838.168560696
scalar OsgEarthNet.uav[22] utilizationSecCharge 197540
scalar OsgEarthNet.uav[22] utilizationSecIdle 72
scalar OsgEarthNet.uav[22] utilizationEnergyMission 206319.48046594
scalar OsgEarthNet.uav[22] utilizationEnergyMaintenance 87043.482727051
scalar OsgEarthNet.uav[22] utilizationEnergyCharge 290528.73144531
scalar OsgEarthNet.uav[22] utilizationEnergyOverdrawMission 0
scalar OsgEarthNet.uav[22] utilizationEnergyOverdrawMaintenance 0
scalar OsgEarthNet.uav[22] utilizationCountMissions 64
scalar OsgEarthNet.uav[22] utilizationCountManeuversMission 1328
scalar OsgEarthNet.uav[22] utilizationCountManeuversMaintenance 129
scalar OsgEarthNet.uav[22] utilizationCountChargeState 64
scalar OsgEarthNet.uav[22] utilizationCountOverdrawnAfterMission 0
scalar OsgEarthNet.uav[22] utilizationCountIdleState 3
scalar OsgEarthNet.uav[22] utilizationFail 0
scalar OsgEarthNet.uav[22] simulationTime 259200
scalar OsgEarthNet.uav[23] utilizationSecMission 5461.8754577408
scalar OsgEarthNet.uav[23] utilizationSecMaintenance 3798.6466137436
scalar OsgEarthNet.uav[23] utilizationSecCharge 34970
scalar OsgEarthNet.uav[23] utilizationSecIdle 214969.47692852
scalar OsgEarthNet.uav[23] utilizationEnergyMission 26494.32723999
scalar OsgEarthNet.uav[23] utilizationEnergyMaintenance 17849.441673279
scalar OsgEarthNet.uav[23] utilizationEnergyCharge 44965.990722656
scalar OsgEarthNet.uav[23] utilizationEnergyOverdrawMission 0
scalar OsgEarthNet.uav[23] utilizationEnergyOverdrawMaintenance 0
scalar OsgEarthNet.uav[23] utilizationCountMissions 10
scalar OsgEarthNet.uav[23] utilizationCountManeuversMission 195
scalar OsgEarthNet.uav[23] utilizationCountManeuversMaintenance 20
scalar OsgEarthNet.uav[23] utilizationCountChargeState 10
scalar OsgEarthNet.uav[23] utilizationCountOverdrawnAfterMission 0
scalar OsgEarthNet.uav[23] utilizationCountIdleState 11
scalar OsgEarthNet.uav[23] utilizationFail 0
scalar OsgEarthNet.uav[23] simulationTime 259200
scalar OsgEarthNet.uav[24] utilizationSecMission 12735.152757244
scalar OsgEarthNet.uav[24] utilizationSecMaintenance 9081.3358265346
scalar OsgEarthNet.uav[24] utilizationSecCharge 84470
scalar OsgEarthNet.uav[24] utilizationSecIdle 152913.51041622
scalar OsgEarthNet.uav[24] utilizationEnergyMission 62447.968589783
scalar OsgEarthNet.uav[24] utilizationEnergyMaintenance 42965.606266022
scalar OsgEarthNet.uav[24] utilizationEnergyCharge 105710.93945312
scalar OsgEarthNet.uav[24] utilizationEnergyOverdrawMission 0
scalar OsgEarthNet.uav[24] utilizationEnergyOverdrawMaintenance 0
scalar OsgEarthNet.uav[24] utilizationCountMissions 26
scalar OsgEarthNet.uav[24] utilizationCountManeuversMission 480
scalar OsgEarthNet.uav[24] utilizationCountManeuversMaintenance 52
scalar OsgEarthNet.uav[24] utilizationCountChargeState 26
scalar OsgEarthNet.uav[24] utilizationCountOverdrawnAfterMission 0
scalar OsgEarthNet.uav[24] utilizationCountIdleState 27
scalar OsgEarthNet.uav[24] utilizationFail 0
scalar OsgEarthNet.uav[24] simulationTime 259200
scalar OsgEarthNet.uav[25] utilizationSecMission 42595.779773902
scalar OsgEarthNet.uav[25] utilizationSecMaintenance 18445.920409039
scalar OsgEarthNet.uav[25] utilizationSecCharge 197476.29781706
scalar OsgEarthNet.uav[25] utilizationSecIdle 682.001
scalar OsgEarthNet.uav[25] utilizationEnergyMission 204309.88220215
scalar OsgEarthNet.uav[25] utilizationEnergyMaintenance 85363.759887695
scalar OsgEarthNet.uav[25] utilizationEnergyCharge 291042.90966797
scalar OsgEarthNet.uav[25] utilizationEnergyOverdrawMission 0
scalar OsgEarthNet.uav[25] utilizationEnergyOverdrawMaintenance 0
scalar OsgEarthNet.uav[25] utilizationCountMissions 64
scalar OsgEarthNet.uav[25] utilizationCountManeuversMission 1272
scalar OsgEarthNet.uav[25] utilizationCountManeuversMaintenance 128
scalar OsgEarthNet.uav[25] utilizationCountChargeState 64
scalar OsgEarthNet.uav[25] utilizationCountOverdrawnAfterMission 0
scalar OsgEarthNet.uav[25] utilizationCountIdleState 2
scalar OsgEarthNet.uav[25] utilizationFail 0
scalar OsgEarthNet.uav[25] simulationTime 259200
scalar OsgEarthNet.uav[26] utilizationSecMission 4061.8754577408
scalar OsgEarthNet.uav[26] utilizationSecMaintenance 2368.9841112256
scalar OsgEarthNet.uav[26] utilizationSecCharge 24420
scalar OsgEarthNet.uav[26] utilizationSecIdle 228349.13943103
scalar OsgEarthNet.uav[26] utilizationEnergyMission 20420.527339935
scalar OsgEarthNet.uav[26] utilizationEnergyMaintenance 11216.46541214
scalar OsgEarthNet.uav[26] utilizationEnergyCharge 31478.9921875
scalar OsgEarthNet.uav[26] utilizationEnergyOverdrawMission 0
scalar OsgEarthNet.uav[26] utilizationEnergyOverdrawMaintenance 0
scalar OsgEarthNet.uav[26] utilizationCountMissions 7
scalar OsgEarthNet.uav[26] utilizationCountManeuversMission 125
scalar OsgEarthNet.uav[26] utilizationCountManeuversMaintenance 14
scalar OsgEarthNet.uav[26] utilizationCountChargeState 7
scalar OsgEarthNet.uav[26] utilizationCountOverdrawnAfterMission 0
scalar OsgEarthNet.uav[26] utilizationCountIdleState 8
scalar OsgEarthNet.uav[26] utilizationFail 0
scalar OsgEarthNet.uav[26] simulationTime 259200
scalar OsgEarthNet.uav[27] utilizationSecMission 16320.057879233
scalar OsgEarthNet.uav[27] utilizationSecMaintenance 11492.108477983
scalar OsgEarthNet.uav[27] utilizationSecCharge 109745.83113606
scalar OsgEarthNet.uav[27] utilizationSecIdle 121642.00150672
scalar OsgEarthNet.uav[27] utilizationEnergyMission 78524.34690094
scalar OsgEarthNet.uav[27] utilizationEnergyMaintenance 54286.216609955
scalar OsgEarthNet.uav[27] utilizationEnergyCharge 133769.90673828
scalar OsgEarthNet.uav[27] utilizationEnergyOverdrawMission 0
scalar OsgEarthNet.uav[27] utilizationEnergyOverdrawMaintenance 0
scalar OsgEarthNet.uav[27] utilizationCountMissions 36
scalar OsgEarthNet.uav[27] utilizationCountManeuversMission 465
scalar OsgEarthNet.uav[27] utilizationCountManeuversMaintenance 72
scalar OsgEarthNet.uav[27] utilizationCountChargeState 36
scalar OsgEarthNet.uav[27] utilizationCountOverdrawnAfterMission 0
scalar OsgEarthNet.uav[27] utilizationCountIdleState 36
scalar OsgEarthNet.uav[27] utilizationFail 0
scalar OsgEarthNet.uav[27] simulationTime 259200
scalar OsgEarthNet.uav[28] utilizationSecMission 41435.379900449
scalar OsgEarthNet.uav[28] utilizationSecMaintenance 19544.782285511
scalar OsgEarthNet.uav[28] utilizationSecCharge 195090
scalar OsgEarthNet.uav[28] utilizationSecIdle 3129.83681404
scalar OsgEarthNet.uav[28] utilizationEnergyMission 201278.91265106
scalar OsgEarthNet.uav[28] utilizationEnergyMaintenance 90771.132731015
scalar OsgEarthNet.uav[28] utilizationEnergyCharge 289673.44384766
scalar OsgEarthNet.uav[28] utilizationEnergyOverdrawMission 0
scalar OsgEarthNet.uav[28] utilizationEnergyOverdrawMaintenance 0
scalar OsgEarthNet.uav[28] utilizationCountMissions 64
scalar OsgEarthNet.uav[28] utilizationCountManeuversMission 1225
scalar OsgEarthNet.uav[28] utilizationCountManeuversMaintenance 128
scalar OsgEarthNet.uav[28] utilizationCountChargeState 63
scalar OsgEarthNet.uav[28] utilizationCountOverdrawnAfterMission 0
scalar OsgEarthNet.uav[28] utilizationCountIdleState 2
scalar OsgEarthNet.uav[28] utilizationFail 0
scalar OsgEarthNet.uav[28] simulationTime 259200
scalar OsgEarthNet.uav[29] utilizationSecMission 16599.002915342
scalar OsgEarthNet.uav[29] utilizationSecMaintenance 10857.698141967
scalar OsgEarthNet.uav[29] utilizationSecCharge 100151.29594269
scalar OsgEarthNet.uav[29] utilizationSecIdle 131592.002
scalar OsgEarthNet.uav[29] utilizationEnergyMission 82024.493141174
scalar OsgEarthNet.uav[29] utilizationEnergyMaintenance 50942.671852112
scalar OsgEarthNet.uav[29] utilizationEnergyCharge 131623.53710938
scalar OsgEarthNet.uav[29] utilizationEnergyOverdrawMission 0
scalar OsgEarthNet.uav[29] utilizationEnergyOverdrawMaintenance 0
scalar OsgEarthNet.uav[29] utilizationCountMissions 29
scalar OsgEarthNet.uav[29] utilizationCountManeuversMission 600
scalar OsgEarthNet.uav[29] utilizationCountManeuversMaintenance 58
scalar OsgEarthNet.uav[29] utilizationCountChargeState 29
scalar OsgEarthNet.uav[29] utilizationCountOverdrawnAfterMission 0
scalar OsgEarthNet.uav[29] utilizationCountIdleState 26
scalar OsgEarthNet.uav[29] utilizationFail 0
scalar OsgEarthNet.uav[29] simulationTime 259200
scalar OsgEarthNet.uav[30] utilizationSecMission 43295.121941905
scalar OsgEarthNet.uav[30] utilizationSecMaintenance 16942.309782881
scalar OsgEarthNet.uav[30] utilizationSecCharge 197406.54566402
scalar OsgEarthNet.uav[30] utilizationSecIdle 1556.0216111988
scalar OsgEarthNet.uav[30] utilizationEnergyMission 210772.50917435
scalar OsgEarthNet.uav[30] utilizationEnergyMaintenance 77467.445064545
scalar OsgEarthNet.uav[30] utilizationEnergyCharge 288469.0859375
scalar OsgEarthNet.uav[30] utilizationEnergyOverdrawMission 0
scalar OsgEarthNet.uav[30] utilizationEnergyOverdrawMaintenance 0
scalar OsgEarthNet.uav[30] utilizationCountMissions 63
scalar OsgEarthNet.uav[30] utilizationCountManeuversMission 1379
scalar OsgEarthNet.uav[30] utilizationCountManeuversMaintenance 126
scalar OsgEarthNet.uav[30] utilizationCountChargeState 63
scalar OsgEarthNet.uav[30] utilizationCountOverdrawnAfterMission 0
scalar OsgEarthNet.uav[30] utilizationCountIdleState 5
scalar OsgEarthNet.uav[30] utilizationFail 0
scalar OsgEarthNet.uav[30] simulationTime 259200
scalar OsgEarthNet.uav[31] utilizationSecMission 13208.059753355
scalar OsgEarthNet.uav[31] utilizationSecMaintenance 9875.207667056
scalar OsgEarthNet.uav[31] utilizationSecCharge 92700
scalar OsgEarthNet.uav[31] utilizationSecIdle 143416.73157959
scalar OsgEarthNet.uav[31] utilizationEnergyMission 65141.628009796
scalar OsgEarthNet.uav[31] utilizationEnergyMaintenance 47118.70526886
scalar OsgEarthNet.uav[31] utilizationEnergyCharge 112916.15112305
scalar OsgEarthNet.uav[31] utilizationEnergyOverdrawMission 0
scalar OsgEarthNet.uav[31] utilizationEnergyOverdrawMaintenance 0
scalar OsgEarthNet.uav[31] utilizationCountMissions 30
scalar OsgEarthNet.uav[31] utilizationCountManeuversMission 421
scalar OsgEarthNet.uav[31] utilizationCountManeuversMaintenance 60
scalar OsgEarthNet.uav[31] utilizationCountChargeState 30
scalar OsgEarthNet.uav[31] utilizationCountOverdrawnAfterMission 0
scalar OsgEarthNet.uav[31] utilizationCountIdleState 31
scalar OsgEarthNet.uav[31] utilizationFail 0
scalar OsgEarthNet.uav[31] simulationTime 259200
scalar OsgEarthNet.uav[32] utilizationSecMission 43522.252779569
scalar OsgEarthNet.uav[32] utilizationSecMaintenance 17789.423737435
scalar OsgEarthNet.uav[32] utilizationSecCharge 196939.10286908
scalar OsgEarthNet.uav[32] utilizationSecIdle 949.21961391566
scalar OsgEarthNet.uav[32] utilizationEnergyMission 208185.8671608
scalar OsgEarthNet.uav[32] utilizationEnergyMaintenance 81894.726383209
scalar OsgEarthNet.uav[32] utilizationEnergyCharge 287093.07080078
scalar OsgEarthNet.uav[32] utilizationEnergyOverdrawMission 0
scalar OsgEarthNet.uav[32] utilizationEnergyOverdrawMaintenance 0
scalar OsgEarthNet.uav[32] utilizationCountMissions 63
scalar OsgEarthNet.uav[32] utilizationCountManeuversMission 1245
scalar OsgEarthNet.uav[32] utilizationCountManeuversMaintenance 126
scalar OsgEarthNet.uav[32] utilizationCountChargeState 63
scalar OsgEarthNet.uav[32] utilizationCountOverdrawnAfterMission 0
scalar OsgEarthNet.uav[32] utilizationCountIdleState 3
scalar OsgEarthNet.uav[32] utilizationFail 0
scalar OsgEarthNet.uav[32] simulationTime 259200
scalar OsgEarthNet.uav[33] utilizationSecMission 11703.125762901
scalar OsgEarthNet.uav[33] utilizationSecMaintenance 8669.3676230555
scalar OsgEarthNet.uav[33] utilizationSecCharge 76790
scalar OsgEarthNet.uav[33] utilizationSecIdle 162037.50561404
scalar OsgEarthNet.uav[33] utilizationEnergyMission 57524.414176941
scalar OsgEarthNet.uav[33] utilizationEnergyMaintenance 41198.258441925
scalar OsgEarthNet.uav[33] utilizationEnergyCharge 98543.486816406
scalar OsgEarthNet.uav[33] utilizationEnergyOverdrawMission 0
scalar OsgEarthNet.uav[33] utilizationEnergyOverdrawMaintenance 0
scalar OsgEarthNet.uav[33] utilizationCountMissions 22
scalar OsgEarthNet.uav[33] utilizationCountManeuversMission 455
scalar OsgEarthNet.uav[33] utilizationCountManeuversMaintenance 44
scalar OsgEarthNet.uav[33] utilizationCountChargeState 22
scalar OsgEarthNet.uav[33] utilizationCountOverdrawnAfterMission 0
scalar OsgEarthNet.uav[33] utilizationCountIdleState 23
scalar OsgEarthNet.uav[33] utilizationFail 0
scalar OsgEarthNet.uav[33] simulationTime 259200
scalar OsgEarthNet.uav[34] utilizationSecMission 18352.137675893
scalar OsgEarthNet.uav[34] utilizationSecMaintenance 11673.7072175
scalar OsgEarthNet.uav[34] utilizationSecCharge 114560.48592862
scalar OsgEarthNet.uav[34] utilizationSecIdle 114613.66817799
scalar OsgEarthNet.uav[34] utilizationEnergyMission 89650.160762787
scalar OsgEarthNet.uav[34] utilizationEnergyMaintenance 56570.645309448
scalar OsgEarthNet.uav[34] utilizationEnergyCharge 144915.9543457
scalar OsgEarthNet.uav[34] utilizationEnergyOverdrawMission 0
scalar OsgEarthNet.uav[34] utilizationEnergyOverdrawMaintenance 0
scalar OsgEarthNet.uav[34] utilizationCountMissions 35
scalar OsgEarthNet.uav[34] utilizationCountManeuversMission 576
scalar OsgEarthNet.uav[34] utilizationCountManeuversMaintenance 70
scalar OsgEarthNet.uav[34] utilizationCountChargeState 35
scalar OsgEarthNet.uav[34] utilizationCountOverdrawnAfterMission 0
scalar OsgEarthNet.uav[34] utilizationCountIdleState 35
scalar OsgEarthNet.uav[34] utilizationFail 0
scalar OsgEarthNet.uav[34] simulationTime 259200
scalar OsgEarthNet.uav[35] utilizationSecMission 42753.66984268
scalar OsgEarthNet.uav[35] utilizationSecMaintenance 17614.32415732
scalar OsgEarthNet.uav[35] utilizationSecCharge 195460
scalar OsgEarthNet.uav[35] utilizationSecIdle 3372.005
scalar OsgEarthNet.uav[35] utilizationEnergyMission 207383.99704753
scalar OsgEarthNet.uav[35] utilizationEnergyMaintenance 81729.237617493
scalar OsgEarthNet.uav[35] utilizationEnergyCharge 286313.03222656
scalar OsgEarthNet.uav[35] utilizationEnergyOverdrawMission 0
scalar OsgEarthNet.uav[35] utilizationEnergyOverdrawMaintenance 0
scalar OsgEarthNet.uav[35] utilizationCountMissions 62
scalar OsgEarthNet.uav[35] utilizationCountManeuversMission 1235
scalar OsgEarthNet.uav[35] utilizationCountManeuversMaintenance 125
scalar OsgEarthNet.uav[35] utilizationCountChargeState 62
scalar OsgEarthNet.uav[35] utilizationCountOverdrawnAfterMission 0
scalar OsgEarthNet.uav[35] utilizationCountIdleState 5
scalar OsgEarthNet.uav[35] utilizationFail 0
scalar OsgEarthNet.uav[35] simulationTime 259200
scalar OsgEarthNet.uav[36] utilizationSecMission 8984.376068062
scalar OsgEarthNet.uav[36] utilizationSecMaintenance 5290.9251470459
scalar OsgEarthNet.uav[36] utilizationSecCharge 52990
scalar OsgEarthNet.uav[36] utilizationSecIdle 191934.69778489
scalar OsgEarthNet.uav[36] utilizationEnergyMission 43428.879196167
scalar OsgEarthNet.uav[36] utilizationEnergyMaintenance 25073.968383789
scalar OsgEarthNet.uav[36] utilizationEnergyCharge 68378.270996094
scalar OsgEarthNet.uav[36] utilizationEnergyOverdrawMission 0
scalar OsgEarthNet.uav[36] utilizationEnergyOverdrawMaintenance 0
scalar OsgEarthNet.uav[36] utilizationCountMissions 15
scalar OsgEarthNet.uav[36] utilizationCountManeuversMission 267
scalar OsgEarthNet.uav[36] utilizationCountManeuversMaintenance 30
scalar OsgEarthNet.uav[36] utilizationCountChargeState 15
scalar OsgEarthNet.uav[36] utilizationCountOverdrawnAfterMission 0
scalar OsgEarthNet.uav[36] utilizationCountIdleState 16
scalar OsgEarthNet.uav[36] utilizationFail 0
scalar OsgEarthNet.uav[36] simulationTime 259200
scalar OsgEarthNet.uav[37] utilizationSecMission 17604.616651343
scalar OsgEarthNet.uav[37] utilizationSecMaintenance 13343.381348657
scalar OsgEarthNet.uav[37] utilizationSecCharge 123070
scalar OsgEarthNet.uav[37] utilizationSecIdle 105182.001
scalar OsgEarthNet.uav[37] utilizationEnergyMission 86228.236629486
scalar OsgEarthNet.uav[37] utilizationEnergyMaintenance 64111.597408689
scalar OsgEarthNet.uav[37] utilizationEnergyCharge 149628.08203125
scalar OsgEarthNet.uav[37] utilizationEnergyOverdrawMission 0
scalar OsgEarthNet.uav[37] utilizationEnergyOverdrawMaintenance 0
scalar OsgEarthNet.uav[37] utilizationCountMissions 40
scalar OsgEarthNet.uav[37] utilizationCountManeuversMission 588
scalar OsgEarthNet.uav[37] utilizationCountManeuversMaintenance 81
scalar OsgEarthNet.uav[37] utilizationCountChargeState 40
scalar OsgEarthNet.uav[37] utilizationCountOverdrawnAfterMission 0
scalar OsgEarthNet.uav[37] utilizationCountIdleState 41
scalar OsgEarthNet.uav[37] utilizationFail 0
scalar OsgEarthNet.uav[37] simulationTime 259200
scalar OsgEarthNet.uav[38] utilizationSecMission 41877.453333058
scalar OsgEarthNet.uav[38] utilizationSecMaintenance 18399.442440732
scalar OsgEarthNet.uav[38] utilizationSecCharge 195441.09822621
scalar OsgEarthNet.uav[38] utilizationSecIdle 3482.005
scalar OsgEarthNet.uav[38] utilizationEnergyMission 203144.97911835
scalar OsgEarthNet.uav[38] utilizationEnergyMaintenance 83414.908527374
scalar OsgEarthNet.uav[38] utilizationEnergyCharge 285332.63769531
scalar OsgEarthNet.uav[38] utilizationEnergyOverdrawMission 0
scalar OsgEarthNet.uav[38] utilizationEnergyOverdrawMaintenance 0
scalar OsgEarthNet.uav[38] utilizationCountMissions 63
scalar OsgEarthNet.uav[38] utilizationCountManeuversMission 1374
scalar OsgEarthNet.uav[38] utilizationCountManeuversMaintenance 126
scalar OsgEarthNet.uav[38] utilizationCountChargeState 63
scalar OsgEarthNet.uav[38] utilizationCountOverdrawnAfterMission 0
scalar OsgEarthNet.uav[38] utilizationCountIdleState 3
scalar OsgEarthNet.uav[38] utilizationFail 0
scalar OsgEarthNet.uav[38] simulationTime 259200
scalar OsgEarthNet.uav[39] utilizationSecMission 10064.376068062
scalar OsgEarthNet.uav[39] utilizationSecMaintenance 6185.8199212876
scalar OsgEarthNet.uav[39] utilizationSecCharge 59870
scalar OsgEarthNet.uav[39] utilizationSecIdle 183079.80301065
scalar OsgEarthNet.uav[39] utilizationEnergyMission 48554.709835053
scalar OsgEarthNet.uav[39] utilizationEnergyMaintenance 29330.189811706
scalar OsgEarthNet.uav[39] utilizationEnergyCharge 77248.554199219
scalar OsgEarthNet.uav[39] utilizationEnergyOverdrawMission 0
scalar OsgEarthNet.uav[39] utilizationEnergyOverdrawMaintenance 0
scalar OsgEarthNet.uav[39] utilizationCountMissions 17
scalar OsgEarthNet.uav[39] utilizationCountManeuversMission 321
scalar OsgEarthNet.uav[39] utilizationCountManeuversMaintenance 34
scalar OsgEarthNet.uav[39] utilizationCountChargeState 17
scalar OsgEarthNet.uav[39] utilizationCountOverdrawnAfterMission 0
scalar OsgEarthNet.uav[39] utilizationCountIdleState 18
scalar OsgEarthNet.uav[39] utilizationFail 0
scalar OsgEarthNet.uav[39] simulationTime 259200
scalar OsgEarthNet.uav[40] utilizationSecMission 8504.376068062
scalar OsgEarthNet.uav[40] utilizationSecMaintenance 4581.4227748315
scalar OsgEarthNet.uav[40] utilizationSecCharge 49050
scalar OsgEarthNet.uav[40] utilizationSecIdle 197064.20015711
scalar OsgEarthNet.uav[40] utilizationEnergyMission 40065.481323242
scalar OsgEarthNet.uav[40] utilizationEnergyMaintenance 21905.881641388
scalar OsgEarthNet.uav[40] utilizationEnergyCharge 63235.098144531
scalar OsgEarthNet.uav[40] utilizationEnergyOverdrawMission 0
scalar OsgEarthNet.uav[40] utilizationEnergyOverdrawMaintenance 0
scalar OsgEarthNet.uav[40] utilizationCountMissions 14
scalar OsgEarthNet.uav[40] utilizationCountManeuversMission 243
scalar OsgEarthNet.uav[40] utilizationCountManeuversMaintenance 28
scalar OsgEarthNet.uav[40] utilizationCountChargeState 14
scalar OsgEarthNet.uav[40] utilizationCountOverdrawnAfterMission 0
scalar OsgEarthNet.uav[40] utilizationCountIdleState 15
scalar OsgEarthNet.uav[40] utilizationFail 0
scalar OsgEarthNet.uav[40] simulationTime 259200
scalar OsgEarthNet.uav[41] utilizationSecMission 19016.98491865
scalar OsgEarthNet.uav[41] utilizationSecMaintenance 12479.290881214
scalar OsgEarthNet.uav[41] utilizationSecCharge 120000
scalar OsgEarthNet.uav[41] utilizationSecIdle 107703.72320014
scalar OsgEarthNet.uav[41] utilizationEnergyMission 93571.226108551
scalar OsgEarthNet.uav[41] utilizationEnergyMaintenance 59120.733787537
scalar OsgEarthNet.uav[41] utilizationEnergyCharge 154714.32128906
scalar OsgEarthNet.uav[41] utilizationEnergyOverdrawMission 0
scalar OsgEarthNet.uav[41] utilizationEnergyOverdrawMaintenance 0
scalar OsgEarthNet.uav[41] utilizationCountMissions 34
scalar OsgEarthNet.uav[41] utilizationCountManeuversMission 766
scalar OsgEarthNet.uav[41] utilizationCountManeuversMaintenance 68
scalar OsgEarthNet.uav[41] utilizationCountChargeState 34
scalar OsgEarthNet.uav[41] utilizationCountOverdrawnAfterMission 0
scalar OsgEarthNet.uav[41] utilizationCountIdleState 35
scalar OsgEarthNet.uav[41] utilizationFail 0
scalar OsgEarthNet.uav[41] simulationTime 259200
scalar OsgEarthNet.uav[42] utilizationSecMission 15421.295923572
scalar OsgEarthNet.uav[42] utilizationSecMaintenance 7549.7909460528
scalar OsgEarthNet.uav[42] utilizationSecCharge 81515.536288537
scalar OsgEarthNet.uav[42] utilizationSecIdle 154713.37584184
scalar OsgEarthNet.uav[42] utilizationEnergyMission 71248.612434387
scalar OsgEarthNet.uav[42] utilizationEnergyMaintenance 35319.157100677
scalar OsgEarthNet.uav[42] utilizationEnergyCharge 105459.89526367
scalar OsgEarthNet.uav[42] utilizationEnergyOverdrawMission 0
scalar OsgEarthNet.uav[42] utilizationEnergyOverdrawMaintenance 0
scalar OsgEarthNet.uav[42] utilizationCountMissions 24
scalar OsgEarthNet.uav[42] utilizationCountManeuversMission 381
scalar OsgEarthNet.uav[42] utilizationCountManeuversMaintenance 48
scalar OsgEarthNet.uav[42] utilizationCountChargeState 24
scalar OsgEarthNet.uav[42] utilizationCountOverdrawnAfterMission 0
scalar OsgEarthNet.uav[42] utilizationCountIdleState 24
scalar OsgEarthNet.uav[42] utilizationFail 0
scalar OsgEarthNet.uav[42] simulationTime 259200
scalar OsgEarthNet.uav[43] utilizationSecMission 20628.643061045
scalar OsgEarthNet.uav[43] utilizationSecMaintenance 13260.068955032
scalar OsgEarthNet.uav[43] utilizationSecCharge 126829.28698392
scalar OsgEarthNet.uav[43] utilizationSecIdle 98482
scalar OsgEarthNet.uav[43] utilizationEnergyMission 101247.4970932
scalar OsgEarthNet.uav[43] utilizationEnergyMaintenance 62751.915634155
scalar OsgEarthNet.uav[43] utilizationEnergyCharge 163970.29199219
scalar OsgEarthNet.uav[43] utilizationEnergyOverdrawMission 0
scalar OsgEarthNet.uav[43] utilizationEnergyOverdrawMaintenance 0
scalar OsgEarthNet.uav[43] utilizationCountMissions 36
scalar OsgEarthNet.uav[43] utilizationCountManeuversMission 684
scalar OsgEarthNet.uav[43] utilizationCountManeuversMaintenance 72
scalar OsgEarthNet.uav[43] utilizationCountChargeState 36
scalar OsgEarthNet.uav[43] utilizationCountOverdrawnAfterMission 0
scalar OsgEarthNet.uav[43] utilizationCountIdleState 36
scalar OsgEarthNet.uav[43] utilizationFail 0
scalar OsgEarthNet.uav[43] simulationTime 259200
scalar OsgEarthNet.uav[44] utilizationSecMission 19603.500981245
scalar OsgEarthNet.uav[44] utilizationSecMaintenance 13622.677431807
scalar OsgEarthNet.uav[44] utilizationSecCharge 127011.81058695
scalar OsgEarthNet.uav[44] utilizationSecIdle 98962.01
scalar OsgEarthNet.uav[44] utilizationEnergyMission 97293.421237946
scalar OsgEarthNet.uav[44] utilizationEnergyMaintenance 64602.497497559
scalar OsgEarthNet.uav[44] utilizationEnergyCharge 158401.06396484
scalar OsgEarthNet.uav[44] utilizationEnergyOverdrawMission 0
scalar OsgEarthNet.uav[44] utilizationEnergyOverdrawMaintenance 0
scalar OsgEarthNet.uav[44] utilizationCountMissions 40
scalar OsgEarthNet.uav[44] utilizationCountManeuversMission 682
scalar OsgEarthNet.uav[44] utilizationCountManeuversMaintenance 80
scalar OsgEarthNet.uav[44] utilizationCountChargeState 40
scalar OsgEarthNet.uav[44] utilizationCountOverdrawnAfterMission 0
scalar OsgEarthNet.uav[44] utilizationCountIdleState 40
scalar OsgEarthNet.uav[44] utilizationFail 0
scalar OsgEarthNet.uav[44] simulationTime 259200
scalar OsgEarthNet.uav[45] utilizationSecMission 42152.819245281
scalar OsgEarthNet.uav[45] utilizationSecMaintenance 19147.023938202
scalar OsgEarthNet.uav[45] utilizationSecCharge 194856.63048528
scalar OsgEarthNet.uav[45] utilizationSecIdle 3043.5253312322
scalar OsgEarthNet.uav[45] utilizationEnergyMission 201413.68255615
scalar OsgEarthNet.uav[45] utilizationEnergyMaintenance 87786.393051147
scalar OsgEarthNet.uav[45] utilizationEnergyCharge 286504.10870361
scalar OsgEarthNet.uav[45] utilizationEnergyOverdrawMission 0
scalar OsgEarthNet.uav[45] utilizationEnergyOverdrawMaintenance 0
scalar OsgEarthNet.uav[45] utilizationCountMissions 64
scalar OsgEarthNet.uav[45] utilizationCountManeuversMission 1252
scalar OsgEarthNet.uav[45] utilizationCountManeuversMaintenance 128
scalar OsgEarthNet.uav[45] utilizationCountChargeState 64
scalar OsgEarthNet.uav[45] utilizationCountOverdrawnAfterMission 0
scalar OsgEarthNet.uav[45] utilizationCountIdleState 5
scalar OsgEarthNet.uav[45] utilizationFail 0
scalar OsgEarthNet.uav[45] simulationTime 259200
scalar OsgEarthNet.uav[46] utilizationSecMission 19997.564905933
scalar OsgEarthNet.uav[46] utilizationSecMaintenance 14641.187870352
scalar OsgEarthNet.uav[46] utilizationSecCharge 129194.72894341
scalar OsgEarthNet.uav[46] utilizationSecIdle 95366.517280303
scalar OsgEarthNet.uav[46] utilizationEnergyMission 97693.761917114
scalar OsgEarthNet.uav[46] utilizationEnergyMaintenance 69688.535243988
scalar OsgEarthNet.uav[46] utilizationEnergyCharge 167931.97973633
scalar OsgEarthNet.uav[46] utilizationEnergyOverdrawMission 0
scalar OsgEarthNet.uav[46] utilizationEnergyOverdrawMaintenance 0
scalar OsgEarthNet.uav[46] utilizationCountMissions 37
scalar OsgEarthNet.uav[46] utilizationCountManeuversMission 746
scalar OsgEarthNet.uav[46] utilizationCountManeuversMaintenance 74
scalar OsgEarthNet.uav[46] utilizationCountChargeState 37
scalar OsgEarthNet.uav[46] utilizationCountOverdrawnAfterMission 0
scalar OsgEarthNet.uav[46] utilizationCountIdleState 37
scalar OsgEarthNet.uav[46] utilizationFail 0
scalar OsgEarthNet.uav[46] simulationTime 259200
scalar OsgEarthNet.uav[47] utilizationSecMission 20343.020131673
scalar OsgEarthNet.uav[47] utilizationSecMaintenance 11644.27935685
scalar OsgEarthNet.uav[47] utilizationSecCharge 121490
scalar OsgEarthNet.uav[47] utilizationSecIdle 105722.69951148
scalar OsgEarthNet.uav[47] utilizationEnergyMission 97655.073249817
scalar OsgEarthNet.uav[47] utilizationEnergyMaintenance 55557.232131958
scalar OsgEarthNet.uav[47] utilizationEnergyCharge 154197.56323242
scalar OsgEarthNet.uav[47] utilizationEnergyOverdrawMission 0
scalar OsgEarthNet.uav[47] utilizationEnergyOverdrawMaintenance 0
scalar OsgEarthNet.uav[47] utilizationCountMissions 36
scalar OsgEarthNet.uav[47] utilizationCountManeuversMission 558
scalar OsgEarthNet.uav[47] utilizationCountManeuversMaintenance 72
scalar OsgEarthNet.uav[47] utilizationCountChargeState 36
scalar OsgEarthNet.uav[47] utilizationCountOverdrawnAfterMission 0
scalar OsgEarthNet.uav[47] utilizationCountIdleState 37
scalar OsgEarthNet.uav[47] utilizationFail 0
scalar OsgEarthNet.uav[47] simulationTime 259200
scalar OsgEarthNet.uav[48] utilizationSecMission 41200.380305339
scalar OsgEarthNet.uav[48] utilizationSecMaintenance 17559.747971982
scalar OsgEarthNet.uav[48] utilizationSecCharge 188027.86772268
scalar OsgEarthNet.uav[48] utilizationSecIdle 12412.003
scalar OsgEarthNet.uav[48] utilizationEnergyMission 193962.11747742
scalar OsgEarthNet.uav[48] utilizationEnergyMaintenance 81683.682022095
scalar OsgEarthNet.uav[48] utilizationEnergyCharge 276091.76367188
scalar OsgEarthNet.uav[48] utilizationEnergyOverdrawMission 0
scalar OsgEarthNet.uav[48] utilizationEnergyOverdrawMaintenance 0
scalar OsgEarthNet.uav[48] utilizationCountMissions 60
scalar OsgEarthNet.uav[48] utilizationCountManeuversMission 1097
scalar OsgEarthNet.uav[48] utilizationCountManeuversMaintenance 120
scalar OsgEarthNet.uav[48] utilizationCountChargeState 60
scalar OsgEarthNet.uav[48] utilizationCountOverdrawnAfterMission 0
scalar OsgEarthNet.uav[48] utilizationCountIdleState 6
scalar OsgEarthNet.uav[48] utilizationFail 0
scalar OsgEarthNet.uav[48] simulationTime 259200
scalar OsgEarthNet.uav[49] utilizationSecMission 17485.517298143
scalar OsgEarthNet.uav[49] utilizationSecMaintenance 12838.936953168
scalar OsgEarthNet.uav[49] utilizationSecCharge 109953.53974869
scalar OsgEarthNet.uav[49] utilizationSecIdle 118922.005
scalar OsgEarthNet.uav[49] utilizationEnergyMission 84385.47700882
scalar OsgEarthNet.uav[49] utilizationEnergyMaintenance 61385.083324432
scalar OsgEarthNet.uav[49] utilizationEnergyCharge 142480.56860352
scalar OsgEarthNet.uav[49] utilizationEnergyOverdrawMission 0
scalar OsgEarthNet.uav[49] utilizationEnergyOverdrawMaintenance 0
scalar OsgEarthNet.uav[49] utilizationCountMissions 32
scalar OsgEarthNet.uav[49] utilizationCountManeuversMission 657
scalar OsgEarthNet.uav[49] utilizationCountManeuversMaintenance 64
scalar OsgEarthNet.uav[49] utilizationCountChargeState 32
scalar OsgEarthNet.uav[49] utilizationCountOverdrawnAfterMission 0
scalar OsgEarthNet.uav[49] utilizationCountIdleState 32
scalar OsgEarthNet.uav[49] utilizationFail 0
scalar OsgEarthNet.uav[49] simulationTime 259200
scalar OsgEarthNet.uav[50] utilizationSecMission 19547.501830963
scalar OsgEarthNet.uav[50] utilizationSecMaintenance 12598.267695592
scalar OsgEarthNet.uav[50] utilizationSecCharge 118052.22647344
scalar OsgEarthNet.uav[50] utilizationSecIdle 109002.003
scalar OsgEarthNet.uav[50] utilizationEnergyMission 96590.995609283
scalar OsgEarthNet.uav[50] utilizationEnergyMaintenance 60498.349784851
scalar OsgEarthNet.uav[50] utilizationEnergyCharge 153720.58349609
scalar OsgEarthNet.uav[50] utilizationEnergyOverdrawMission 0
scalar OsgEarthNet.uav[50] utilizationEnergyOverdrawMaintenance 0
scalar OsgEarthNet.uav[50] utilizationCountMissions 34
scalar OsgEarthNet.uav[50] utilizationCountManeuversMission 665
scalar OsgEarthNet.uav[50] utilizationCountManeuversMaintenance 68
scalar OsgEarthNet.uav[50] utilizationCountChargeState 34
scalar OsgEarthNet.uav[50] utilizationCountOverdrawnAfterMission 0
scalar OsgEarthNet.uav[50] utilizationCountIdleState 34
scalar OsgEarthNet.uav[50] utilizationFail 0
scalar OsgEarthNet.uav[50] simulationTime 259200
scalar OsgEarthNet.uav[51] utilizationSecMission 21337.643041184
scalar OsgEarthNet.uav[51] utilizationSecMaintenance 14690.355958816
scalar OsgEarthNet.uav[51] utilizationSecCharge 140060
scalar OsgEarthNet.uav[51] utilizationSecIdle 83112
scalar OsgEarthNet.uav[51] utilizationEnergyMission 103580.05254342
scalar OsgEarthNet.uav[51] utilizationEnergyMaintenance 70290.256027222
scalar OsgEarthNet.uav[51] utilizationEnergyCharge 173085.45043945
scalar OsgEarthNet.uav[51] utilizationEnergyOverdrawMission 0
scalar OsgEarthNet.uav[51] utilizationEnergyOverdrawMaintenance 0
scalar OsgEarthNet.uav[51] utilizationCountMissions 44
scalar OsgEarthNet.uav[51] utilizationCountManeuversMission 680
scalar OsgEarthNet.uav[51] utilizationCountManeuversMaintenance 89
scalar OsgEarthNet.uav[51] utilizationCountChargeState 44
scalar OsgEarthNet.uav[51] utilizationCountOverdrawnAfterMission 0
scalar OsgEarthNet.uav[51] utilizationCountIdleState 45
scalar OsgEarthNet.uav[51] utilizationFail 0
scalar OsgEarthNet.uav[51] simulationTime 259200
scalar OsgEarthNet.uav[52] utilizationSecMission 42504.362289095
scalar OsgEarthNet.uav[52] utilizationSecMaintenance 18410.164749288
scalar OsgEarthNet.uav[52] utilizationSecCharge 196466.04661433
scalar OsgEarthNet.uav[52] utilizationSecIdle 1819.4253472904
scalar OsgEarthNet.uav[52] utilizationEnergyMission 207701.88138962
scalar OsgEarthNet.uav[52] utilizationEnergyMaintenance 85367.487197876
scalar OsgEarthNet.uav[52] utilizationEnergyCharge 289368.21777344
scalar OsgEarthNet.uav[52] utilizationEnergyOverdrawMission 0
scalar OsgEarthNet.uav[52] utilizationEnergyOverdrawMaintenance 0
scalar OsgEarthNet.uav[52] utilizationCountMissions 64
scalar OsgEarthNet.uav[52] utilizationCountManeuversMission 1308
scalar OsgEarthNet.uav[52] utilizationCountManeuversMaintenance 128
scalar OsgEarthNet.uav[52] utilizationCountChargeState 64
scalar OsgEarthNet.uav[52] utilizationCountOverdrawnAfterMission 0
scalar OsgEarthNet.uav[52] utilizationCountIdleState 4
scalar OsgEarthNet.uav[52] utilizationFail 0
scalar OsgEarthNet.uav[52] simulationTime 259200
scalar OsgEarthNet.uav[53] utilizationSecMission 19408.752136124
scalar OsgEarthNet.uav[53] utilizationSecMaintenance 11817.099641462
scalar OsgEarthNet.uav[53] utilizationSecCharge 116830
scalar OsgEarthNet.uav[53] utilizationSecIdle 111144.14722241
scalar OsgEarthNet.uav[53] utilizationEnergyMission 95189.867095947
scalar OsgEarthNet.uav[53] utilizationEnergyMaintenance 56156.058757782
scalar OsgEarthNet.uav[53] utilizationEnergyCharge 151108.046875
scalar OsgEarthNet.uav[53] utilizationEnergyOverdrawMission 0
scalar OsgEarthNet.uav[53] utilizationEnergyOverdrawMaintenance 0
scalar OsgEarthNet.uav[53] utilizationCountMissions 33
scalar OsgEarthNet.uav[53] utilizationCountManeuversMission 606
scalar OsgEarthNet.uav[53] utilizationCountManeuversMaintenance 66
scalar OsgEarthNet.uav[53] utilizationCountChargeState 33
scalar OsgEarthNet.uav[53] utilizationCountOverdrawnAfterMission 0
scalar OsgEarthNet.uav[53] utilizationCountIdleState 34
scalar OsgEarthNet.uav[53] utilizationFail 0
scalar OsgEarthNet.uav[53] simulationTime 259200
scalar OsgEarthNet.uav[54] utilizationSecMission 21145.539942514
scalar OsgEarthNet.uav[54] utilizationSecMaintenance 13933.35416302
scalar OsgEarthNet.uav[54] utilizationSecCharge 134916.39919543
scalar OsgEarthNet.uav[54] utilizationSecIdle 89204.705699036
scalar OsgEarthNet.uav[54] utilizationEnergyMission 102917.00588989
scalar OsgEarthNet.uav[54] utilizationEnergyMaintenance 65192.767906189
scalar OsgEarthNet.uav[54] utilizationEnergyCharge 169775.78564453
scalar OsgEarthNet.uav[54] utilizationEnergyOverdrawMission 0
scalar OsgEarthNet.uav[54] utilizationEnergyOverdrawMaintenance 0
scalar OsgEarthNet.uav[54] utilizationCountMissions 41
scalar OsgEarthNet.uav[54] utilizationCountManeuversMission 708
scalar OsgEarthNet.uav[54] utilizationCountManeuversMaintenance 82
scalar OsgEarthNet.uav[54] utilizationCountChargeState 41
scalar OsgEarthNet.uav[54] utilizationCountOverdrawnAfterMission 0
scalar OsgEarthNet.uav[54] utilizationCountIdleState 41
scalar OsgEarthNet.uav[54] utilizationFail 0
scalar OsgEarthNet.uav[54] simulationTime 259200
scalar OsgEarthNet.uav[55] utilizationSecMission 43259.676748623
scalar OsgEarthNet.uav[55] utilizationSecMaintenance 17626.525267749
scalar OsgEarthNet.uav[55] utilizationSecCharge 197334.62187322
scalar OsgEarthNet.uav[55] utilizationSecIdle 979.17511041073
scalar OsgEarthNet.uav[55] utilizationEnergyMission 207620.84547424
scalar OsgEarthNet.uav[55] utilizationEnergyMaintenance 80608.056793213
scalar OsgEarthNet.uav[55] utilizationEnergyCharge 289638.94140625
scalar OsgEarthNet.uav[55] utilizationEnergyOverdrawMission 0
scalar OsgEarthNet.uav[55] utilizationEnergyOverdrawMaintenance 0
scalar OsgEarthNet.uav[55] utilizationCountMissions 64
scalar OsgEarthNet.uav[55] utilizationCountManeuversMission 1353
scalar OsgEarthNet.uav[55] utilizationCountManeuversMaintenance 128
scalar OsgEarthNet.uav[55] utilizationCountChargeState 64
scalar OsgEarthNet.uav[55] utilizationCountOverdrawnAfterMission 0
scalar OsgEarthNet.uav[55] utilizationCountIdleState 2
scalar OsgEarthNet.uav[55] utilizationFail 0
scalar OsgEarthNet.uav[55] simulationTime 259200
scalar OsgEarthNet.uav[56] utilizationSecMission 16886.360600882
scalar OsgEarthNet.uav[56] utilizationSecMaintenance 11216.337626392
scalar OsgEarthNet.uav[56] utilizationSecCharge 105180
scalar OsgEarthNet.uav[56] utilizationSecIdle 125917.30077273
scalar OsgEarthNet.uav[56] utilizationEnergyMission 82599.470283508
scalar OsgEarthNet.uav[56] utilizationEnergyMaintenance 53322.404121399
scalar OsgEarthNet.uav[56] utilizationEnergyCharge 135947.46435547
scalar OsgEarthNet.uav[56] utilizationEnergyOverdrawMission 0
scalar OsgEarthNet.uav[56] utilizationEnergyOverdrawMaintenance 0
scalar OsgEarthNet.uav[56] utilizationCountMissions 30
scalar OsgEarthNet.uav[56] utilizationCountManeuversMission 567
scalar OsgEarthNet.uav[56] utilizationCountManeuversMaintenance 60
scalar OsgEarthNet.uav[56] utilizationCountChargeState 30
scalar OsgEarthNet.uav[56] utilizationCountOverdrawnAfterMission 0
scalar OsgEarthNet.uav[56] utilizationCountIdleState 31
scalar OsgEarthNet.uav[56] utilizationFail 0
scalar OsgEarthNet.uav[56] simulationTime 259200
scalar OsgEarthNet.uav[57] utilizationSecMission 19143.914580971
scalar OsgEarthNet.uav[57] utilizationSecMaintenance 14141.510028392
scalar OsgEarthNet.uav[57] utilizationSecCharge 132000
scalar OsgEarthNet.uav[57] utilizationSecIdle 93914.574390637
scalar OsgEarthNet.uav[57] utilizationEnergyMission 91399.095474243
scalar OsgEarthNet.uav[57] utilizationEnergyMaintenance 67438.523330688
scalar OsgEarthNet.uav[57] utilizationEnergyCharge 160641.53417969
scalar OsgEarthNet.uav[57] utilizationEnergyOverdrawMission 0
scalar OsgEarthNet.uav[57] utilizationEnergyOverdrawMaintenance 0
scalar OsgEarthNet.uav[57] utilizationCountMissions 43
scalar OsgEarthNet.uav[57] utilizationCountManeuversMission 613
scalar OsgEarthNet.uav[57] utilizationCountManeuversMaintenance 86
scalar OsgEarthNet.uav[57] utilizationCountChargeState 43
scalar OsgEarthNet.uav[57] utilizationCountOverdrawnAfterMission 0
scalar OsgEarthNet.uav[57] utilizationCountIdleState 44
scalar OsgEarthNet.uav[57] utilizationFail 0
scalar OsgEarthNet.uav[57] simulationTime 259200
scalar OsgEarthNet.uav[58] utilizationSecMission 42422.257921868
scalar OsgEarthNet.uav[58] utilizationSecMaintenance 18810.863453144
scalar OsgEarthNet.uav[58] utilizationSecCharge 196394.87662499
scalar OsgEarthNet.uav[58] utilizationSecIdle 1572.001
scalar OsgEarthNet.uav[58] utilizationEnergyMission 205190.2752533
scalar OsgEarthNet.uav[58] utilizationEnergyMaintenance 86714.714763641
scalar OsgEarthNet.uav[58] utilizationEnergyCharge 289212.14892578
scalar OsgEarthNet.uav[58] utilizationEnergyOverdrawMission 0
scalar OsgEarthNet.uav[58] utilizationEnergyOverdrawMaintenance 0
scalar OsgEarthNet.uav[58] utilizationCountMissions 64
scalar OsgEarthNet.uav[58] utilizationCountManeuversMission 1342
scalar OsgEarthNet.uav[58] utilizationCountManeuversMaintenance 128
scalar OsgEarthNet.uav[58] utilizationCountChargeState 64
scalar OsgEarthNet.uav[58] utilizationCountOverdrawnAfterMission 0
scalar OsgEarthNet.uav[58] utilizationCountIdleState 8
scalar OsgEarthNet.uav[58] utilizationFail 0
scalar OsgEarthNet.uav[58] simulationTime 259200
scalar OsgEarthNet.uav[59] utilizationSecMission 18537.243792213
scalar OsgEarthNet.uav[59] utilizationSecMaintenance 11694.979006696
scalar OsgEarthNet.uav[59] utilizationSecCharge 109300
scalar OsgEarthNet.uav[59] utilizationSecIdle 119667.77620109
scalar OsgEarthNet.uav[59] utilizationEnergyMission 90307.16942215
scalar OsgEarthNet.uav[59] utilizationEnergyMaintenance 55840.054711492
scalar OsgEarthNet.uav[59] utilizationEnergyCharge 141368.45556641
scalar OsgEarthNet.uav[59] utilizationEnergyOverdrawMission 0
scalar OsgEarthNet.uav[59] utilizationEnergyOverdrawMaintenance 0
scalar OsgEarthNet.uav[59] utilizationCountMissions 32
scalar OsgEarthNet.uav[59] utilizationCountManeuversMission 619
scalar OsgEarthNet.uav[59] utilizationCountManeuversMaintenance 64
scalar OsgEarthNet.uav[59] utilizationCountChargeState 31
scalar OsgEarthNet.uav[59] utilizationCountOverdrawnAfterMission 0
scalar OsgEarthNet.uav[59] utilizationCountIdleState 32
scalar OsgEarthNet.uav[59] utilizationFail 0
scalar OsgEarthNet.uav[59] simulationTime 259200
scalar OsgEarthNet.uav[60] utilizationSecMission 19126.876678383
scalar OsgEarthNet.uav[60] utilizationSecMaintenance 12775.177210879
scalar OsgEarthNet.uav[60] utilizationSecCharge 119010
scalar OsgEarthNet.uav[60] utilizationSecIdle 108287.94511074
scalar OsgEarthNet.uav[60] utilizationEnergyMission 93388.220638275
scalar OsgEarthNet.uav[60] utilizationEnergyMaintenance 60662.149417877
scalar OsgEarthNet.uav[60] utilizationEnergyCharge 153386.00683594
scalar OsgEarthNet.uav[60] utilizationEnergyOverdrawMission 0
scalar OsgEarthNet.uav[60] utilizationEnergyOverdrawMaintenance 0
scalar OsgEarthNet.uav[60] utilizationCountMissions 34
scalar OsgEarthNet.uav[60] utilizationCountManeuversMission 670
scalar OsgEarthNet.uav[60] utilizationCountManeuversMaintenance 68
scalar OsgEarthNet.uav[60] utilizationCountChargeState 34
scalar OsgEarthNet.uav[60] utilizationCountOverdrawnAfterMission 0
scalar OsgEarthNet.uav[60] utilizationCountIdleState 35
scalar OsgEarthNet.uav[60] utilizationFail 0
scalar OsgEarthNet.uav[60] simulationTime 259200
scalar OsgEarthNet.uav[61] utilizationSecMission 22319.644279507
scalar OsgEarthNet.uav[61] utilizationSecMaintenance 15333.350088412
scalar OsgEarthNet.uav[61] utilizationSecCharge 146160
scalar OsgEarthNet.uav[61] utilizationSecIdle 75387.004632081
scalar OsgEarthNet.uav[61] utilizationEnergyMission 110532.7419281
scalar OsgEarthNet.uav[61] utilizationEnergyMaintenance 72645.07326889
scalar OsgEarthNet.uav[61] utilizationEnergyCharge 183929.19018555
scalar OsgEarthNet.uav[61] utilizationEnergyOverdrawMission 0
scalar OsgEarthNet.uav[61] utilizationEnergyOverdrawMaintenance 0
scalar OsgEarthNet.uav[61] utilizationCountMissions 44
scalar OsgEarthNet.uav[61] utilizationCountManeuversMission 811
scalar OsgEarthNet.uav[61] utilizationCountManeuversMaintenance 88
scalar OsgEarthNet.uav[61] utilizationCountChargeState 44
scalar OsgEarthNet.uav[61] utilizationCountOverdrawnAfterMission 0
scalar OsgEarthNet.uav[61] utilizationCountIdleState 45
scalar OsgEarthNet.uav[61] utilizationFail 0
scalar OsgEarthNet.uav[61] simulationTime 259200
scalar OsgEarthNet.uav[62] utilizationSecMission 43053.188187759
scalar OsgEarthNet.uav[62] utilizationSecMaintenance 17476.421479571
scalar OsgEarthNet.uav[62] utilizationSecCharge 195609.68127558
scalar OsgEarthNet.uav[62] utilizationSecIdle 3060.7080570899
scalar OsgEarthNet.uav[62] utilizationEnergyMission 207159.41876221
scalar OsgEarthNet.uav[62] utilizationEnergyMaintenance 80195.717197418
scalar OsgEarthNet.uav[62] utilizationEnergyCharge 288560.15722656
scalar OsgEarthNet.uav[62] utilizationEnergyOverdrawMission 0
scalar OsgEarthNet.uav[62] utilizationEnergyOverdrawMaintenance 0
scalar OsgEarthNet.uav[62] utilizationCountMissions 63
scalar OsgEarthNet.uav[62] utilizationCountManeuversMission 1239
scalar OsgEarthNet.uav[62] utilizationCountManeuversMaintenance 126
scalar OsgEarthNet.uav[62] utilizationCountChargeState 63
scalar OsgEarthNet.uav[62] utilizationCountOverdrawnAfterMission 0
scalar OsgEarthNet.uav[62] utilizationCountIdleState 4
scalar OsgEarthNet.uav[62] utilizationFail 0
scalar OsgEarthNet.uav[62] simulationTime 259200
scalar OsgEarthNet.uav[63] utilizationSecMission 17726.251525803
scalar OsgEarthNet.uav[63] utilizationSecMaintenance 12037.160631381
scalar OsgEarthNet.uav[63] utilizationSecCharge 109734.58284282
scalar OsgEarthNet.uav[63] utilizationSecIdle 119702.004
scalar OsgEarthNet.uav[63] utilizationEnergyMission 84650.175678253
scalar OsgEarthNet.uav[63] utilizationEnergyMaintenance 56756.851287842
scalar OsgEarthNet.uav[63] utilizationEnergyCharge 142003.90869141
scalar OsgEarthNet.uav[63] utilizationEnergyOverdrawMission 0
scalar OsgEarthNet.uav[63] utilizationEnergyOverdrawMaintenance 0
scalar OsgEarthNet.uav[63] utilizationCountMissions 32
scalar OsgEarthNet.uav[63] utilizationCountManeuversMission 626
scalar OsgEarthNet.uav[63] utilizationCountManeuversMaintenance 64
scalar OsgEarthNet.uav[63] utilizationCountChargeState 32
scalar OsgEarthNet.uav[63] utilizationCountOverdrawnAfterMission 0
scalar OsgEarthNet.uav[63] utilizationCountIdleState 32
scalar OsgEarthNet.uav[63] utilizationFail 0
scalar OsgEarthNet.uav[63] simulationTime 259200
scalar OsgEarthNet.uav[64] utilizationSecMission 21473.433592855
scalar OsgEarthNet.uav[64] utilizationSecMaintenance 14333.533568889
scalar OsgEarthNet.uav[64] utilizationSecCharge 135481.02483826
scalar OsgEarthNet.uav[64] utilizationSecIdle 87912.007
scalar OsgEarthNet.uav[64] utilizationEnergyMission 103966.66532135
scalar OsgEarthNet.uav[64] utilizationEnergyMaintenance 68449.69203186
scalar OsgEarthNet.uav[64] utilizationEnergyCharge 168797.42480469
scalar OsgEarthNet.uav[64] utilizationEnergyOverdrawMission 0
scalar OsgEarthNet.uav[64] utilizationEnergyOverdrawMaintenance 0
scalar OsgEarthNet.uav[64] utilizationCountMissions 44
scalar OsgEarthNet.uav[64] utilizationCountManeuversMission 684
scalar OsgEarthNet.uav[64] utilizationCountManeuversMaintenance 88
scalar OsgEarthNet.uav[64] utilizationCountChargeState 44
scalar OsgEarthNet.uav[64] utilizationCountOverdrawnAfterMission 0
scalar OsgEarthNet.uav[64] utilizationCountIdleState 40
scalar OsgEarthNet.uav[64] utilizationFail 0
scalar OsgEarthNet.uav[64] simulationTime 259200
scalar OsgEarthNet.uav[65] utilizationSecMission 42835.591213298
scalar OsgEarthNet.uav[65] utilizationSecMaintenance 17972.496686846
scalar OsgEarthNet.uav[65] utilizationSecCharge 195039.90509986
scalar OsgEarthNet.uav[65] utilizationSecIdle 3352.006
[...]
scalar OsgEarthNet.uav[76] utilizationEnergyOverdrawMaintenance 0
scalar OsgEarthNet.uav[76] utilizationCountMissions 31
scalar OsgEarthNet.uav[76] utilizationCountManeuversMission 591
scalar OsgEarthNet.uav[76] utilizationCountManeuversMaintenance 62
scalar OsgEarthNet.uav[76] utilizationCountChargeState 31
scalar OsgEarthNet.uav[76] utilizationCountOverdrawnAfterMission 0
scalar OsgEarthNet.uav[76] utilizationCountIdleState 31
scalar OsgEarthNet.uav[76] utilizationFail 0
scalar OsgEarthNet.uav[76] simulationTime 259200
scalar OsgEarthNet.uav[77] utilizationSecMission 22272.551275619
scalar OsgEarthNet.uav[77] utilizationSecMaintenance 15346.734794735
scalar OsgEarthNet.uav[77] utilizationSecCharge 144633.39684782
scalar OsgEarthNet.uav[77] utilizationSecIdle 76947.316081831
scalar OsgEarthNet.uav[77] utilizationEnergyMission 108494.30443573
scalar OsgEarthNet.uav[77] utilizationEnergyMaintenance 72582.232227325
scalar OsgEarthNet.uav[77] utilizationEnergyCharge 179804.09301758
scalar OsgEarthNet.uav[77] utilizationEnergyOverdrawMission 0
scalar OsgEarthNet.uav[77] utilizationEnergyOverdrawMaintenance 0
scalar OsgEarthNet.uav[77] utilizationCountMissions 46
scalar OsgEarthNet.uav[77] utilizationCountManeuversMission 726
scalar OsgEarthNet.uav[77] utilizationCountManeuversMaintenance 92
scalar OsgEarthNet.uav[77] utilizationCountChargeState 46
scalar OsgEarthNet.uav[77] utilizationCountOverdrawnAfterMission 0
scalar OsgEarthNet.uav[77] utilizationCountIdleState 46
scalar OsgEarthNet.uav[77] utilizationFail 0
scalar OsgEarthNet.uav[77] simulationTime 259200
scalar OsgEarthNet.uav[78] utilizationSecMission 43323.161564655
scalar OsgEarthNet.uav[78] utilizationSecMaintenance 17684.837435345
scalar OsgEarthNet.uav[78] utilizationSecCharge 198130
scalar OsgEarthNet.uav[78] utilizationSecIdle 62
scalar OsgEarthNet.uav[78] utilizationEnergyMission 210825.19817129
scalar OsgEarthNet.uav[78] utilizationEnergyMaintenance 81625.427398682
scalar OsgEarthNet.uav[78] utilizationEnergyCharge 291169.79443359
scalar OsgEarthNet.uav[78] utilizationEnergyOverdrawMission 0
scalar OsgEarthNet.uav[78] utilizationEnergyOverdrawMaintenance 0
scalar OsgEarthNet.uav[78] utilizationCountMissions 63
scalar OsgEarthNet.uav[78] utilizationCountManeuversMission 1319
scalar OsgEarthNet.uav[78] utilizationCountManeuversMaintenance 126
scalar OsgEarthNet.uav[78] utilizationCountChargeState 63
scalar OsgEarthNet.uav[78] utilizationCountOverdrawnAfterMission 0
scalar OsgEarthNet.uav[78] utilizationCountIdleState 2
scalar OsgEarthNet.uav[78] utilizationFail 0
scalar OsgEarthNet.uav[78] simulationTime 259200
scalar OsgEarthNet.uav[79] utilizationSecMission 17976.618639633
scalar OsgEarthNet.uav[79] utilizationSecMaintenance 11913.374436395
scalar OsgEarthNet.uav[79] utilizationSecCharge 112340
scalar OsgEarthNet.uav[79] utilizationSecIdle 116970.00592397
scalar OsgEarthNet.uav[79] utilizationEnergyMission 88923.452133179
scalar OsgEarthNet.uav[79] utilizationEnergyMaintenance 56495.982189178
scalar OsgEarthNet.uav[79] utilizationEnergyCharge 144792.12060547
scalar OsgEarthNet.uav[79] utilizationEnergyOverdrawMission 0
scalar OsgEarthNet.uav[79] utilizationEnergyOverdrawMaintenance 0
scalar OsgEarthNet.uav[79] utilizationCountMissions 32
scalar OsgEarthNet.uav[79] utilizationCountManeuversMission 617
scalar OsgEarthNet.uav[79] utilizationCountManeuversMaintenance 64
scalar OsgEarthNet.uav[79] utilizationCountChargeState 32
scalar OsgEarthNet.uav[79] utilizationCountOverdrawnAfterMission 0
scalar OsgEarthNet.uav[79] utilizationCountIdleState 33
scalar OsgEarthNet.uav[79] utilizationFail 0
scalar OsgEarthNet.uav[79] simulationTime 259200
scalar OsgEarthNet.uav[80] utilizationSecMission 23822.009331655
scalar OsgEarthNet.uav[80] utilizationSecMaintenance 14747.466476125
scalar OsgEarthNet.uav[80] utilizationSecCharge 141448.52319222
scalar OsgEarthNet.uav[80] utilizationSecIdle 79182
scalar OsgEarthNet.uav[80] utilizationEnergyMission 117909.5224762
scalar OsgEarthNet.uav[80] utilizationEnergyMaintenance 69884.375408172
scalar OsgEarthNet.uav[80] utilizationEnergyCharge 183019.38183594
scalar OsgEarthNet.uav[80] utilizationEnergyOverdrawMission 0
scalar OsgEarthNet.uav[80] utilizationEnergyOverdrawMaintenance 0
scalar OsgEarthNet.uav[80] utilizationCountMissions 41
scalar OsgEarthNet.uav[80] utilizationCountManeuversMission 772
scalar OsgEarthNet.uav[80] utilizationCountManeuversMaintenance 81
scalar OsgEarthNet.uav[80] utilizationCountChargeState 41
scalar OsgEarthNet.uav[80] utilizationCountOverdrawnAfterMission 0
scalar OsgEarthNet.uav[80] utilizationCountIdleState 41
scalar OsgEarthNet.uav[80] utilizationFail 0
scalar OsgEarthNet.uav[80] simulationTime 259200
scalar OsgEarthNet.uav[81] utilizationSecMission 23465.746742377
scalar OsgEarthNet.uav[81] utilizationSecMaintenance 15978.002244907
scalar OsgEarthNet.uav[81] utilizationSecCharge 148836.22973857
scalar OsgEarthNet.uav[81] utilizationSecIdle 70920.020274145
scalar OsgEarthNet.uav[81] utilizationEnergyMission 113848.96017456
scalar OsgEarthNet.uav[81] utilizationEnergyMaintenance 75746.624858856
scalar OsgEarthNet.uav[81] utilizationEnergyCharge 185297.09643555
scalar OsgEarthNet.uav[81] utilizationEnergyOverdrawMission 0
scalar OsgEarthNet.uav[81] utilizationEnergyOverdrawMaintenance 0
scalar OsgEarthNet.uav[81] utilizationCountMissions 47
scalar OsgEarthNet.uav[81] utilizationCountManeuversMission 801
scalar OsgEarthNet.uav[81] utilizationCountManeuversMaintenance 94
scalar OsgEarthNet.uav[81] utilizationCountChargeState 47
scalar OsgEarthNet.uav[81] utilizationCountOverdrawnAfterMission 0
scalar OsgEarthNet.uav[81] utilizationCountIdleState 47
scalar OsgEarthNet.uav[81] utilizationFail 0
scalar OsgEarthNet.uav[81] simulationTime 259200
scalar OsgEarthNet.uav[82] utilizationSecMission 42115.371667504
scalar OsgEarthNet.uav[82] utilizationSecMaintenance 18593.34754758
scalar OsgEarthNet.uav[82] utilizationSecCharge 197339.27778492
scalar OsgEarthNet.uav[82] utilizationSecIdle 1152.002
scalar OsgEarthNet.uav[82] utilizationEnergyMission 205343.42296982
scalar OsgEarthNet.uav[82] utilizationEnergyMaintenance 86125.964691162
scalar OsgEarthNet.uav[82] utilizationEnergyCharge 289185.26904297
scalar OsgEarthNet.uav[82] utilizationEnergyOverdrawMission 0
scalar OsgEarthNet.uav[82] utilizationEnergyOverdrawMaintenance 0
scalar OsgEarthNet.uav[82] utilizationCountMissions 63
scalar OsgEarthNet.uav[82] utilizationCountManeuversMission 1297
scalar OsgEarthNet.uav[82] utilizationCountManeuversMaintenance 126
scalar OsgEarthNet.uav[82] utilizationCountChargeState 63
scalar OsgEarthNet.uav[82] utilizationCountOverdrawnAfterMission 0
scalar OsgEarthNet.uav[82] utilizationCountIdleState 2
scalar OsgEarthNet.uav[82] utilizationFail 0
scalar OsgEarthNet.uav[82] simulationTime 259200
scalar OsgEarthNet.uav[83] utilizationSecMission 21020.994707695
scalar OsgEarthNet.uav[83] utilizationSecMaintenance 11203.285237582
scalar OsgEarthNet.uav[83] utilizationSecCharge 119340
scalar OsgEarthNet.uav[83] utilizationSecIdle 107635.71905472
scalar OsgEarthNet.uav[83] utilizationEnergyMission 100054.58501053
scalar OsgEarthNet.uav[83] utilizationEnergyMaintenance 53192.85766983
scalar OsgEarthNet.uav[83] utilizationEnergyCharge 153804.64208984
scalar OsgEarthNet.uav[83] utilizationEnergyOverdrawMission 0
scalar OsgEarthNet.uav[83] utilizationEnergyOverdrawMaintenance 0
scalar OsgEarthNet.uav[83] utilizationCountMissions 34
scalar OsgEarthNet.uav[83] utilizationCountManeuversMission 587
scalar OsgEarthNet.uav[83] utilizationCountManeuversMaintenance 68
scalar OsgEarthNet.uav[83] utilizationCountChargeState 34
scalar OsgEarthNet.uav[83] utilizationCountOverdrawnAfterMission 0
scalar OsgEarthNet.uav[83] utilizationCountIdleState 35
scalar OsgEarthNet.uav[83] utilizationFail 0
scalar OsgEarthNet.uav[83] simulationTime 259200
scalar OsgEarthNet.uav[84] utilizationSecMission 22523.005710736
scalar OsgEarthNet.uav[84] utilizationSecMaintenance 15726.000829857
scalar OsgEarthNet.uav[84] utilizationSecCharge 147048.98345941
scalar OsgEarthNet.uav[84] utilizationSecIdle 73902.009
scalar OsgEarthNet.uav[84] utilizationEnergyMission 109618.56877136
scalar OsgEarthNet.uav[84] utilizationEnergyMaintenance 74618.546894073
scalar OsgEarthNet.uav[84] utilizationEnergyCharge 181917.20410156
scalar OsgEarthNet.uav[84] utilizationEnergyOverdrawMission 0
scalar OsgEarthNet.uav[84] utilizationEnergyOverdrawMaintenance 0
scalar OsgEarthNet.uav[84] utilizationCountMissions 47
scalar OsgEarthNet.uav[84] utilizationCountManeuversMission 753
scalar OsgEarthNet.uav[84] utilizationCountManeuversMaintenance 94
scalar OsgEarthNet.uav[84] utilizationCountChargeState 47
scalar OsgEarthNet.uav[84] utilizationCountOverdrawnAfterMission 0
scalar OsgEarthNet.uav[84] utilizationCountIdleState 47
scalar OsgEarthNet.uav[84] utilizationFail 0
scalar OsgEarthNet.uav[84] simulationTime 259200
scalar OsgEarthNet.uav[85] utilizationSecMission 43441.035820677
scalar OsgEarthNet.uav[85] utilizationSecMaintenance 17205.007945009
scalar OsgEarthNet.uav[85] utilizationSecCharge 195641.95123431
scalar OsgEarthNet.uav[85] utilizationSecIdle 2912.004
scalar OsgEarthNet.uav[85] utilizationEnergyMission 209396.75051498
scalar OsgEarthNet.uav[85] utilizationEnergyMaintenance 78119.660266876
scalar OsgEarthNet.uav[85] utilizationEnergyCharge 286507.77685547
scalar OsgEarthNet.uav[85] utilizationEnergyOverdrawMission 0
scalar OsgEarthNet.uav[85] utilizationEnergyOverdrawMaintenance 0
scalar OsgEarthNet.uav[85] utilizationCountMissions 63
scalar OsgEarthNet.uav[85] utilizationCountManeuversMission 1252
scalar OsgEarthNet.uav[85] utilizationCountManeuversMaintenance 126
scalar OsgEarthNet.uav[85] utilizationCountChargeState 63
scalar OsgEarthNet.uav[85] utilizationCountOverdrawnAfterMission 0
scalar OsgEarthNet.uav[85] utilizationCountIdleState 3
scalar OsgEarthNet.uav[85] utilizationFail 0
scalar OsgEarthNet.uav[85] simulationTime 259200
scalar OsgEarthNet.uav[86] utilizationSecMission 22550.627593865
scalar OsgEarthNet.uav[86] utilizationSecMaintenance 13187.370406135
scalar OsgEarthNet.uav[86] utilizationSecCharge 130580
scalar OsgEarthNet.uav[86] utilizationSecIdle 92882.001
scalar OsgEarthNet.uav[86] utilizationEnergyMission 110532.28843307
scalar OsgEarthNet.uav[86] utilizationEnergyMaintenance 63072.358303427
scalar OsgEarthNet.uav[86] utilizationEnergyCharge 168652.87060547
scalar OsgEarthNet.uav[86] utilizationEnergyOverdrawMission 0
scalar OsgEarthNet.uav[86] utilizationEnergyOverdrawMaintenance 0
scalar OsgEarthNet.uav[86] utilizationCountMissions 38
scalar OsgEarthNet.uav[86] utilizationCountManeuversMission 685
scalar OsgEarthNet.uav[86] utilizationCountManeuversMaintenance 76
scalar OsgEarthNet.uav[86] utilizationCountChargeState 37
scalar OsgEarthNet.uav[86] utilizationCountOverdrawnAfterMission 0
scalar OsgEarthNet.uav[86] utilizationCountIdleState 38
scalar OsgEarthNet.uav[86] utilizationFail 0
scalar OsgEarthNet.uav[86] simulationTime 259200
scalar OsgEarthNet.uav[87] utilizationSecMission 23152.344475756
scalar OsgEarthNet.uav[87] utilizationSecMaintenance 15685.013824742
scalar OsgEarthNet.uav[87] utilizationSecCharge 147748.32254025
scalar OsgEarthNet.uav[87] utilizationSecIdle 72614.318159256
scalar OsgEarthNet.uav[87] utilizationEnergyMission 112045.74904251
scalar OsgEarthNet.uav[87] utilizationEnergyMaintenance 74608.008533478
scalar OsgEarthNet.uav[87] utilizationEnergyCharge 185300.12646484
scalar OsgEarthNet.uav[87] utilizationEnergyOverdrawMission 0
scalar OsgEarthNet.uav[87] utilizationEnergyOverdrawMaintenance 0
scalar OsgEarthNet.uav[87] utilizationCountMissions 46
scalar OsgEarthNet.uav[87] utilizationCountManeuversMission 793
scalar OsgEarthNet.uav[87] utilizationCountManeuversMaintenance 92
scalar OsgEarthNet.uav[87] utilizationCountChargeState 46
scalar OsgEarthNet.uav[87] utilizationCountOverdrawnAfterMission 0
scalar OsgEarthNet.uav[87] utilizationCountIdleState 46
scalar OsgEarthNet.uav[87] utilizationFail 0
scalar OsgEarthNet.uav[87] simulationTime 259200
scalar OsgEarthNet.uav[88] utilizationSecMission 42897.728536801
scalar OsgEarthNet.uav[88] utilizationSecMaintenance 17553.7612635
scalar OsgEarthNet.uav[88] utilizationSecCharge 197271.05893567
scalar OsgEarthNet.uav[88] utilizationSecIdle 1477.4502640309
scalar OsgEarthNet.uav[88] utilizationEnergyMission 210278.36892319
scalar OsgEarthNet.uav[88] utilizationEnergyMaintenance 81684.673751831
scalar OsgEarthNet.uav[88] utilizationEnergyCharge 287062.72631836
scalar OsgEarthNet.uav[88] utilizationEnergyOverdrawMission 0
scalar OsgEarthNet.uav[88] utilizationEnergyOverdrawMaintenance 0
scalar OsgEarthNet.uav[88] utilizationCountMissions 63
scalar OsgEarthNet.uav[88] utilizationCountManeuversMission 1310
scalar OsgEarthNet.uav[88] utilizationCountManeuversMaintenance 126
scalar OsgEarthNet.uav[88] utilizationCountChargeState 63
scalar OsgEarthNet.uav[88] utilizationCountOverdrawnAfterMission 0
scalar OsgEarthNet.uav[88] utilizationCountIdleState 7
scalar OsgEarthNet.uav[88] utilizationFail 0
scalar OsgEarthNet.uav[88] simulationTime 259200
scalar OsgEarthNet.uav[89] utilizationSecMission 19747.501830963
scalar OsgEarthNet.uav[89] utilizationSecMaintenance 13133.066744411
scalar OsgEarthNet.uav[89] utilizationSecCharge 119887.42242463
scalar OsgEarthNet.uav[89] utilizationSecIdle 106432.008
scalar OsgEarthNet.uav[89] utilizationEnergyMission 96090.451778412
scalar OsgEarthNet.uav[89] utilizationEnergyMaintenance 62781.315219879
scalar OsgEarthNet.uav[89] utilizationEnergyCharge 155004.21716309
scalar OsgEarthNet.uav[89] utilizationEnergyOverdrawMission 0
scalar OsgEarthNet.uav[89] utilizationEnergyOverdrawMaintenance 0
scalar OsgEarthNet.uav[89] utilizationCountMissions 35
scalar OsgEarthNet.uav[89] utilizationCountManeuversMission 675
scalar OsgEarthNet.uav[89] utilizationCountManeuversMaintenance 70
scalar OsgEarthNet.uav[89] utilizationCountChargeState 35
scalar OsgEarthNet.uav[89] utilizationCountOverdrawnAfterMission 0
scalar OsgEarthNet.uav[89] utilizationCountIdleState 35
scalar OsgEarthNet.uav[89] utilizationFail 0
scalar OsgEarthNet.uav[89] simulationTime 259200
scalar OsgEarthNet.uav[90] utilizationSecMission 19780.776557536
scalar OsgEarthNet.uav[90] utilizationSecMaintenance 11121.381428123
scalar OsgEarthNet.uav[90] utilizationSecCharge 113850
scalar OsgEarthNet.uav[90] utilizationSecIdle 114447.84101434
scalar OsgEarthNet.uav[90] utilizationEnergyMission 93722.643104553
scalar OsgEarthNet.uav[90] utilizationEnergyMaintenance 53180.232372284
scalar OsgEarthNet.uav[90] utilizationEnergyCharge 147690.94921875
scalar OsgEarthNet.uav[90] utilizationEnergyOverdrawMission 0
scalar OsgEarthNet.uav[90] utilizationEnergyOverdrawMaintenance 0
scalar OsgEarthNet.uav[90] utilizationCountMissions 32
scalar OsgEarthNet.uav[90] utilizationCountManeuversMission 559
scalar OsgEarthNet.uav[90] utilizationCountManeuversMaintenance 64
scalar OsgEarthNet.uav[90] utilizationCountChargeState 32
scalar OsgEarthNet.uav[90] utilizationCountOverdrawnAfterMission 0
scalar OsgEarthNet.uav[90] utilizationCountIdleState 33
scalar OsgEarthNet.uav[90] utilizationFail 0
scalar OsgEarthNet.uav[90] simulationTime 259200
scalar OsgEarthNet.uav[91] utilizationSecMission 22249.603444115
scalar OsgEarthNet.uav[91] utilizationSecMaintenance 15453.110612179
scalar OsgEarthNet.uav[91] utilizationSecCharge 146100
scalar OsgEarthNet.uav[91] utilizationSecIdle 75397.284943706
scalar OsgEarthNet.uav[91] utilizationEnergyMission 108438.12911606
scalar OsgEarthNet.uav[91] utilizationEnergyMaintenance 73411.566944122
scalar OsgEarthNet.uav[91] utilizationEnergyCharge 180247.6484375
scalar OsgEarthNet.uav[91] utilizationEnergyOverdrawMission 0
scalar OsgEarthNet.uav[91] utilizationEnergyOverdrawMaintenance 0
scalar OsgEarthNet.uav[91] utilizationCountMissions 46
scalar OsgEarthNet.uav[91] utilizationCountManeuversMission 747
scalar OsgEarthNet.uav[91] utilizationCountManeuversMaintenance 92
scalar OsgEarthNet.uav[91] utilizationCountChargeState 46
scalar OsgEarthNet.uav[91] utilizationCountOverdrawnAfterMission 0
scalar OsgEarthNet.uav[91] utilizationCountIdleState 47
scalar OsgEarthNet.uav[91] utilizationFail 0
scalar OsgEarthNet.uav[91] simulationTime 259200
scalar OsgEarthNet.uav[92] utilizationSecMission 43621.040222508
scalar OsgEarthNet.uav[92] utilizationSecMaintenance 17074.492660306
scalar OsgEarthNet.uav[92] utilizationSecCharge 196532.46311719
scalar OsgEarthNet.uav[92] utilizationSecIdle 1972.003
scalar OsgEarthNet.uav[92] utilizationEnergyMission 210387.83682251
scalar OsgEarthNet.uav[92] utilizationEnergyMaintenance 79224.573814392
scalar OsgEarthNet.uav[92] utilizationEnergyCharge 284878.45605469
scalar OsgEarthNet.uav[92] utilizationEnergyOverdrawMission 0
scalar OsgEarthNet.uav[92] utilizationEnergyOverdrawMaintenance 0
scalar OsgEarthNet.uav[92] utilizationCountMissions 62
scalar OsgEarthNet.uav[92] utilizationCountManeuversMission 1185
scalar OsgEarthNet.uav[92] utilizationCountManeuversMaintenance 124
scalar OsgEarthNet.uav[92] utilizationCountChargeState 62
scalar OsgEarthNet.uav[92] utilizationCountOverdrawnAfterMission 0
scalar OsgEarthNet.uav[92] utilizationCountIdleState 5
scalar OsgEarthNet.uav[92] utilizationFail 0
scalar OsgEarthNet.uav[92] simulationTime 259200
scalar OsgEarthNet.uav[93] utilizationSecMission 19335.120063364
scalar OsgEarthNet.uav[93] utilizationSecMaintenance 11722.872936636
scalar OsgEarthNet.uav[93] utilizationSecCharge 115920
scalar OsgEarthNet.uav[93] utilizationSecIdle 112222.006
scalar OsgEarthNet.uav[93] utilizationEnergyMission 94529.499782668
scalar OsgEarthNet.uav[93] utilizationEnergyMaintenance 56177.051525116
scalar OsgEarthNet.uav[93] utilizationEnergyCharge 149566.43505859
scalar OsgEarthNet.uav[93] utilizationEnergyOverdrawMission 0
scalar OsgEarthNet.uav[93] utilizationEnergyOverdrawMaintenance 0
scalar OsgEarthNet.uav[93] utilizationCountMissions 33
scalar OsgEarthNet.uav[93] utilizationCountManeuversMission 612
scalar OsgEarthNet.uav[93] utilizationCountManeuversMaintenance 67
scalar OsgEarthNet.uav[93] utilizationCountChargeState 33
scalar OsgEarthNet.uav[93] utilizationCountOverdrawnAfterMission 0
scalar OsgEarthNet.uav[93] utilizationCountIdleState 34
scalar OsgEarthNet.uav[93] utilizationFail 0
scalar OsgEarthNet.uav[93] simulationTime 259200
scalar OsgEarthNet.uav[94] utilizationSecMission 22696.201177494
scalar OsgEarthNet.uav[94] utilizationSecMaintenance 15751.795822506
scalar OsgEarthNet.uav[94] utilizationSecCharge 148080
scalar OsgEarthNet.uav[94] utilizationSecIdle 72672.002
scalar OsgEarthNet.uav[94] utilizationEnergyMission 109909.46559525
scalar OsgEarthNet.uav[94] utilizationEnergyMaintenance 75281.721836088
scalar OsgEarthNet.uav[94] utilizationEnergyCharge 183858.05493164
scalar OsgEarthNet.uav[94] utilizationEnergyOverdrawMission 0
scalar OsgEarthNet.uav[94] utilizationEnergyOverdrawMaintenance 0
scalar OsgEarthNet.uav[94] utilizationCountMissions 47
scalar OsgEarthNet.uav[94] utilizationCountManeuversMission 777
scalar OsgEarthNet.uav[94] utilizationCountManeuversMaintenance 94
scalar OsgEarthNet.uav[94] utilizationCountChargeState 46
scalar OsgEarthNet.uav[94] utilizationCountOverdrawnAfterMission 0
scalar OsgEarthNet.uav[94] utilizationCountIdleState 47
scalar OsgEarthNet.uav[94] utilizationFail 0
scalar OsgEarthNet.uav[94] simulationTime 259200
scalar OsgEarthNet.cs[0] usedPower 4022360.8903162
scalar OsgEarthNet.cs[0] chargedPower 4022360.8903162
scalar OsgEarthNet.cs[0] chargedMobileNodes 877
scalar OsgEarthNet.cs[0] reservations 891
scalar OsgEarthNet.cs[1] usedPower 4163594.7496146
scalar OsgEarthNet.cs[1] chargedPower 4163594.7496146
scalar OsgEarthNet.cs[1] chargedMobileNodes 1040
scalar OsgEarthNet.cs[1] reservations 1053
scalar OsgEarthNet.cs[2] usedPower 8679943.9560458
scalar OsgEarthNet.cs[2] chargedPower 8679943.9560458
scalar OsgEarthNet.cs[2] chargedMobileNodes 91
scalar OsgEarthNet.cs[2] reservations 1907

