version 2
run Szenario_Hotel_Gabelbach-200-20180712-05:24:31-16608
attr configname Szenario_Hotel_Gabelbach
attr datetime 20180712-05:24:31
attr experiment Szenario_Hotel_Gabelbach
attr inifile omnetpp.ini
attr iterationvars "$replM=2, $biWeight=0.35, $replSearchM=1, $numUAVs=90"
attr iterationvarsf replM=2,biWeight=0.35,replSearchM=1,numUAVs=90-
attr measurement "$replM=2, $biWeight=0.35, $replSearchM=1, $numUAVs=90"
attr network OsgEarthNet
attr processid 16608
attr repetition 8
attr replication #8
attr resultdir results
attr runnumber 200
attr seedset 200
itervar biWeight 0.35
itervar numUAVs 90
itervar replM 2
itervar replSearchM 1
param *.osgEarthScene.scene "\"Szenario_Hotel_Gabelbach.earth\""
param *.playgroundLatitude 50.6830269
param *.playgroundLongitude 10.8538055
param *.playgroundWidth 3500m
param *.playgroundHeight 3500m
param *.cs[0].posX 3537m
param *.cs[0].posY 965m
param *.cs[0].posZ 538m
param *.cs[1].posX 312m
param *.cs[1].posY 1262m
param *.cs[1].posZ 539m
param *.cs[2].posX 2185m
param *.cs[2].posY 3026m
param *.cs[2].posZ 777m
param *.cs[3].posX 10m
param *.cs[3].posY 2200m
param *.cs[3].posZ 560m
param *.cs[4].posX 750m
param *.cs[4].posY 200m
param *.cs[4].posZ 540m
param *.cs[5].posX 2450m
param *.cs[5].posY 180m
param *.cs[5].posZ 524m
param *.cs[6].posX 3140m
param *.cs[6].posY 1790m
param *.cs[6].posZ 606m
param *.numCSs 3
param *.uav[*].replacementMethod 2
param *.uav[*].weightedSumWeight 0.35
param *.missionControl.replacementSearchMethod 1
param *.numUAVs 90
param *.numCSs 3
param *.numUAVs 100
param *.*.timeStep 10s
param *.uav[*].commandPreviewCommandCount 20
param *.missionControl.missionFiles "\"missions\\\\Szenario_WB_Hotel_Gabelbach_Mission_Hotel.waypoints,missions\\\\Szenario_WB_Hotel_Gabelbach_Mission_Kickelhahn.waypoints,missions\\\\Szenario_WB_Hotel_Gabelbach_Mission_Ilmenau_Sportplatz.waypoints,missions\\\\Szenario_WB_Hotel_Gabelbach_Mission_Manebach_Mitte.waypoints,missions\\\\Szenario_WB_Hotel_Gabelbach_Mission_Manebach_Sued.waypoints,missions\\\\Szenario_WB_Hotel_Gabelbach_Hover_HoheSchlaufe.waypoints,missions\\\\Szenario_WB_Hotel_Gabelbach_Hover_Kickelhahn.waypoints,missions\\\\Szenario_WB_Hotel_Gabelbach_Hover_Gabelbachskopf.waypoints,missions\\\\Szenario_WB_Hotel_Gabelbach_Hover_Dachskopf.waypoints\""
param *.uav[0].startX 3537m
param *.uav[0].startY 965m
param *.uav[0].startZ 539m
param *.uav[1].startX 312m
param *.uav[1].startY 1262m
param *.uav[1].startZ 540m
param *.uav[2].startX 2185m
param *.uav[2].startY 3026m
param *.uav[2].startZ 778m
param *.uav[3].startX 3537m
param *.uav[3].startY 965m
param *.uav[3].startZ 539m
param *.uav[4].startX 312m
param *.uav[4].startY 1262m
param *.uav[4].startZ 540m
param *.uav[5].startX 2185m
param *.uav[5].startY 3026m
param *.uav[5].startZ 778m
param *.uav[6].startX 3537m
param *.uav[6].startY 965m
param *.uav[6].startZ 539m
param *.uav[7].startX 312m
param *.uav[7].startY 1262m
param *.uav[7].startZ 540m
param *.uav[8].startX 2185m
param *.uav[8].startY 3026m
param *.uav[8].startZ 778m
param *.uav[9].startX 3537m
param *.uav[9].startY 965m
param *.uav[9].startZ 539m
param *.uav[10].startX 3537m
param *.uav[10].startY 965m
param *.uav[10].startZ 539m
param *.uav[11].startX 312m
param *.uav[11].startY 1262m
param *.uav[11].startZ 540m
param *.uav[12].startX 2185m
param *.uav[12].startY 3026m
param *.uav[12].startZ 778m
param *.uav[13].startX 3537m
param *.uav[13].startY 965m
param *.uav[13].startZ 539m
param *.uav[14].startX 312m
param *.uav[14].startY 1262m
param *.uav[14].startZ 540m
param *.uav[15].startX 2185m
param *.uav[15].startY 3026m
param *.uav[15].startZ 778m
param *.uav[16].startX 3537m
param *.uav[16].startY 965m
param *.uav[16].startZ 539m
param *.uav[17].startX 312m
param *.uav[17].startY 1262m
param *.uav[17].startZ 540m
param *.uav[18].startX 2185m
param *.uav[18].startY 3026m
param *.uav[18].startZ 778m
param *.uav[19].startX 3537m
param *.uav[19].startY 965m
param *.uav[19].startZ 539m
param *.uav[20].startX 3537m
param *.uav[20].startY 965m
param *.uav[20].startZ 539m
param *.uav[21].startX 312m
param *.uav[21].startY 1262m
param *.uav[21].startZ 540m
param *.uav[22].startX 2185m
param *.uav[22].startY 3026m
param *.uav[22].startZ 778m
param *.uav[23].startX 3537m
param *.uav[23].startY 965m
param *.uav[23].startZ 539m
param *.uav[24].startX 312m
param *.uav[24].startY 1262m
param *.uav[24].startZ 540m
param *.uav[25].startX 2185m
param *.uav[25].startY 3026m
param *.uav[25].startZ 778m
param *.uav[26].startX 3537m
param *.uav[26].startY 965m
param *.uav[26].startZ 539m
param *.uav[27].startX 312m
param *.uav[27].startY 1262m
param *.uav[27].startZ 540m
param *.uav[28].startX 2185m
param *.uav[28].startY 3026m
param *.uav[28].startZ 778m
param *.uav[29].startX 3537m
param *.uav[29].startY 965m
param *.uav[29].startZ 539m
param *.uav[30].startX 3537m
param *.uav[30].startY 965m
param *.uav[30].startZ 539m
param *.uav[31].startX 312m
param *.uav[31].startY 1262m
param *.uav[31].startZ 540m
param *.uav[32].startX 2185m
param *.uav[32].startY 3026m
param *.uav[32].startZ 778m
param *.uav[33].startX 3537m
param *.uav[33].startY 965m
param *.uav[33].startZ 539m
param *.uav[34].startX 312m
param *.uav[34].startY 1262m
param *.uav[34].startZ 540m
param *.uav[35].startX 2185m
param *.uav[35].startY 3026m
param *.uav[35].startZ 778m
param *.uav[36].startX 3537m
param *.uav[36].startY 965m
param *.uav[36].startZ 539m
param *.uav[37].startX 312m
param *.uav[37].startY 1262m
param *.uav[37].startZ 540m
param *.uav[38].startX 2185m
param *.uav[38].startY 3026m
param *.uav[38].startZ 778m
param *.uav[39].startX 3537m
param *.uav[39].startY 965m
param *.uav[39].startZ 539m
param *.uav[40].startX 3537m
param *.uav[40].startY 965m
param *.uav[40].startZ 539m
param *.uav[41].startX 312m
param *.uav[41].startY 1262m
param *.uav[41].startZ 540m
param *.uav[42].startX 2185m
param *.uav[42].startY 3026m
param *.uav[42].startZ 778m
param *.uav[43].startX 3537m
param *.uav[43].startY 965m
param *.uav[43].startZ 539m
param *.uav[44].startX 312m
param *.uav[44].startY 1262m
param *.uav[44].startZ 540m
param *.uav[45].startX 2185m
param *.uav[45].startY 3026m
param *.uav[45].startZ 778m
param *.uav[46].startX 3537m
param *.uav[46].startY 965m
param *.uav[46].startZ 539m
param *.uav[47].startX 312m
param *.uav[47].startY 1262m
param *.uav[47].startZ 540m
param *.uav[48].startX 2185m
param *.uav[48].startY 3026m
param *.uav[48].startZ 778m
param *.uav[49].startX 3537m
param *.uav[49].startY 965m
param *.uav[49].startZ 539m
param *.uav[50].startX 3537m
param *.uav[50].startY 965m
param *.uav[50].startZ 539m
param *.uav[51].startX 312m
param *.uav[51].startY 1262m
param *.uav[51].startZ 540m
param *.uav[52].startX 2185m
param *.uav[52].startY 3026m
param *.uav[52].startZ 778m
param *.uav[53].startX 3537m
param *.uav[53].startY 965m
param *.uav[53].startZ 539m
param *.uav[54].startX 312m
param *.uav[54].startY 1262m
param *.uav[54].startZ 540m
param *.uav[55].startX 2185m
param *.uav[55].startY 3026m
param *.uav[55].startZ 778m
param *.uav[56].startX 3537m
param *.uav[56].startY 965m
param *.uav[56].startZ 539m
param *.uav[57].startX 312m
param *.uav[57].startY 1262m
param *.uav[57].startZ 540m
param *.uav[58].startX 2185m
param *.uav[58].startY 3026m
param *.uav[58].startZ 778m
param *.uav[59].startX 3537m
param *.uav[59].startY 965m
param *.uav[59].startZ 539m
param *.uav[60].startX 3537m
param *.uav[60].startY 965m
param *.uav[60].startZ 539m
param *.uav[61].startX 312m
param *.uav[61].startY 1262m
param *.uav[61].startZ 540m
param *.uav[62].startX 2185m
param *.uav[62].startY 3026m
param *.uav[62].startZ 778m
param *.uav[63].startX 3537m
param *.uav[63].startY 965m
param *.uav[63].startZ 539m
param *.uav[64].startX 312m
param *.uav[64].startY 1262m
param *.uav[64].startZ 540m
param *.uav[65].startX 2185m
param *.uav[65].startY 3026m
param *.uav[65].startZ 778m
param *.uav[66].startX 3537m
param *.uav[66].startY 965m
param *.uav[66].startZ 539m
param *.uav[67].startX 312m
param *.uav[67].startY 1262m
param *.uav[67].startZ 540m
param *.uav[68].startX 2185m
param *.uav[68].startY 3026m
param *.uav[68].startZ 778m
param *.uav[69].startX 3537m
param *.uav[69].startY 965m
param *.uav[69].startZ 539m
param *.uav[70].startX 3537m
param *.uav[70].startY 965m
param *.uav[70].startZ 539m
param *.uav[71].startX 312m
param *.uav[71].startY 1262m
param *.uav[71].startZ 540m
param *.uav[72].startX 2185m
param *.uav[72].startY 3026m
param *.uav[72].startZ 778m
param *.uav[73].startX 3537m
param *.uav[73].startY 965m
param *.uav[73].startZ 539m
param *.uav[74].startX 312m
param *.uav[74].startY 1262m
param *.uav[74].startZ 540m
param *.uav[75].startX 2185m
param *.uav[75].startY 3026m
param *.uav[75].startZ 778m
param *.uav[76].startX 3537m
param *.uav[76].startY 965m
param *.uav[76].startZ 539m
param *.uav[77].startX 312m
param *.uav[77].startY 1262m
param *.uav[77].startZ 540m
param *.uav[78].startX 2185m
param *.uav[78].startY 3026m
param *.uav[78].startZ 778m
param *.uav[79].startX 3537m
param *.uav[79].startY 965m
param *.uav[79].startZ 539m
param *.uav[80].startX 3537m
param *.uav[80].startY 965m
param *.uav[80].startZ 539m
param *.uav[81].startX 312m
param *.uav[81].startY 1262m
param *.uav[81].startZ 540m
param *.uav[82].startX 2185m
param *.uav[82].startY 3026m
param *.uav[82].startZ 778m
param *.uav[83].startX 3537m
param *.uav[83].startY 965m
param *.uav[83].startZ 539m
param *.uav[84].startX 312m
param *.uav[84].startY 1262m
param *.uav[84].startZ 540m
param *.uav[85].startX 2185m
param *.uav[85].startY 3026m
param *.uav[85].startZ 778m
param *.uav[86].startX 3537m
param *.uav[86].startY 965m
param *.uav[86].startZ 539m
param *.uav[87].startX 312m
param *.uav[87].startY 1262m
param *.uav[87].startZ 540m
param *.uav[88].startX 2185m
param *.uav[88].startY 3026m
param *.uav[88].startZ 778m
param *.uav[89].startX 3537m
param *.uav[89].startY 965m
param *.uav[89].startZ 539m
param *.uav[90].startX 3537m
param *.uav[90].startY 965m
param *.uav[90].startZ 539m
param *.uav[91].startX 312m
param *.uav[91].startY 1262m
param *.uav[91].startZ 540m
param *.uav[92].startX 2185m
param *.uav[92].startY 3026m
param *.uav[92].startZ 778m
param *.uav[93].startX 3537m
param *.uav[93].startY 965m
param *.uav[93].startZ 539m
param *.uav[94].startX 312m
param *.uav[94].startY 1262m
param *.uav[94].startZ 540m
param *.uav[95].startX 2185m
param *.uav[95].startY 3026m
param *.uav[95].startZ 778m
param *.uav[96].startX 3537m
param *.uav[96].startY 965m
param *.uav[96].startZ 539m
param *.uav[97].startX 312m
param *.uav[97].startY 1262m
param *.uav[97].startZ 540m
param *.uav[98].startX 2185m
param *.uav[98].startY 3026m
param *.uav[98].startZ 778m
param *.uav[99].startX 3537m
param *.uav[99].startY 965m
param *.uav[99].startZ 539m
param *.osgEarthScene.scene "\"boston.earth\""
param *.playgroundLatitude 42.3558
param *.playgroundLongitude -71.0677
param *.playgroundWidth 400m
param *.playgroundHeight 200m
param *.channelController.connectionColor "\"#0000FF40\""
param *.channelController.showConnections false
param *.uav[*].modelURL "\"quadrocopter.small.obj.15.scale.0,0,90.rot\""
param *.uav[*].labelColor "\"#FF7C00CC\""
param *.uav[*].label2Color "\"#FF7C00EE\""
param *.uav[*].batteryCapacity 5200mAh
param *.uav[*].batteryRemaining uav[index].batteryCapacity
param *.uav[*].predictionQuantile 0.95
param *.uav[*].replacementMethod 2
param *.uav[*].weightedSumWeight 0.5
param *.cs[*].modelURL "\"chargingstation_v1.osgt.2.scale.0,0,0.rot.0,0,-15e-1.trans\""
param *.cs[*].spotsWaiting 999
param *.cs[*].spotsCharging 999
param *.cs[*].chargeEffectivenessPercentage 100
param *.cs[*].nonLinearPhaseStartPercentage 85
param *.cs[*].chargeCurrent 6.0A
param *.cs[*].prioritizeFastCharge true
param *.missionControl.replacementSearchMethod 0
param *.*.timeStep 9s

scalar OsgEarthNet.uav[0] utilizationSecMission 760.62515258028
scalar OsgEarthNet.uav[0] utilizationSecMaintenance 202.91610409653
scalar OsgEarthNet.uav[0] utilizationSecCharge 3430
scalar OsgEarthNet.uav[0] utilizationSecIdle 254806.45774332
scalar OsgEarthNet.uav[0] utilizationEnergyMission 3529.7649230957
scalar OsgEarthNet.uav[0] utilizationEnergyMaintenance 1000.9399337769
scalar OsgEarthNet.uav[0] utilizationEnergyCharge 4380.8940429688
scalar OsgEarthNet.uav[0] utilizationEnergyOverdrawMission 0
scalar OsgEarthNet.uav[0] utilizationEnergyOverdrawMaintenance 0
scalar OsgEarthNet.uav[0] utilizationCountMissions 1
scalar OsgEarthNet.uav[0] utilizationCountManeuversMission 12
scalar OsgEarthNet.uav[0] utilizationCountManeuversMaintenance 2
scalar OsgEarthNet.uav[0] utilizationCountChargeState 1
scalar OsgEarthNet.uav[0] utilizationCountOverdrawnAfterMission 0
scalar OsgEarthNet.uav[0] utilizationCountIdleState 2
scalar OsgEarthNet.uav[0] utilizationFail 0
scalar OsgEarthNet.uav[0] simulationTime 259200
scalar OsgEarthNet.uav[1] utilizationSecMission 28119.488468735
scalar OsgEarthNet.uav[1] utilizationSecMaintenance 16086.579809124
scalar OsgEarthNet.uav[1] utilizationSecCharge 166513.66929025
scalar OsgEarthNet.uav[1] utilizationSecIdle 48480.261431891
scalar OsgEarthNet.uav[1] utilizationEnergyMission 135342.97166443
scalar OsgEarthNet.uav[1] utilizationEnergyMaintenance 76755.118637085
scalar OsgEarthNet.uav[1] utilizationEnergyCharge 209687.40820312
scalar OsgEarthNet.uav[1] utilizationEnergyOverdrawMission 0
scalar OsgEarthNet.uav[1] utilizationEnergyOverdrawMaintenance 0
scalar OsgEarthNet.uav[1] utilizationCountMissions 51
scalar OsgEarthNet.uav[1] utilizationCountManeuversMission 884
scalar OsgEarthNet.uav[1] utilizationCountManeuversMaintenance 102
scalar OsgEarthNet.uav[1] utilizationCountChargeState 51
scalar OsgEarthNet.uav[1] utilizationCountOverdrawnAfterMission 0
scalar OsgEarthNet.uav[1] utilizationCountIdleState 51
scalar OsgEarthNet.uav[1] utilizationFail 0
scalar OsgEarthNet.uav[1] simulationTime 259200
scalar OsgEarthNet.uav[2] utilizationSecMission 34104.01412761
scalar OsgEarthNet.uav[2] utilizationSecMaintenance 14725.965865362
scalar OsgEarthNet.uav[2] utilizationSecCharge 177332.568743
scalar OsgEarthNet.uav[2] utilizationSecIdle 33037.450264031
scalar OsgEarthNet.uav[2] utilizationEnergyMission 164996.76112366
scalar OsgEarthNet.uav[2] utilizationEnergyMaintenance 66702.008132935
scalar OsgEarthNet.uav[2] utilizationEnergyCharge 230367.87072754
scalar OsgEarthNet.uav[2] utilizationEnergyOverdrawMission 0
scalar OsgEarthNet.uav[2] utilizationEnergyOverdrawMaintenance 0
scalar OsgEarthNet.uav[2] utilizationCountMissions 51
scalar OsgEarthNet.uav[2] utilizationCountManeuversMission 1089
scalar OsgEarthNet.uav[2] utilizationCountManeuversMaintenance 102
scalar OsgEarthNet.uav[2] utilizationCountChargeState 51
scalar OsgEarthNet.uav[2] utilizationCountOverdrawnAfterMission 0
scalar OsgEarthNet.uav[2] utilizationCountIdleState 50
scalar OsgEarthNet.uav[2] utilizationFail 0
scalar OsgEarthNet.uav[2] simulationTime 259200
scalar OsgEarthNet.uav[3] utilizationSecMission 9552.8677241509
scalar OsgEarthNet.uav[3] utilizationSecMaintenance 6902.7013948722
scalar OsgEarthNet.uav[3] utilizationSecCharge 62590
scalar OsgEarthNet.uav[3] utilizationSecIdle 180154.42988098
scalar OsgEarthNet.uav[3] utilizationEnergyMission 47220.203365326
scalar OsgEarthNet.uav[3] utilizationEnergyMaintenance 33101.004325867
scalar OsgEarthNet.uav[3] utilizationEnergyCharge 80190.945800781
scalar OsgEarthNet.uav[3] utilizationEnergyOverdrawMission 0
scalar OsgEarthNet.uav[3] utilizationEnergyOverdrawMaintenance 0
scalar OsgEarthNet.uav[3] utilizationCountMissions 18
scalar OsgEarthNet.uav[3] utilizationCountManeuversMission 352
scalar OsgEarthNet.uav[3] utilizationCountManeuversMaintenance 36
scalar OsgEarthNet.uav[3] utilizationCountChargeState 18
scalar OsgEarthNet.uav[3] utilizationCountOverdrawnAfterMission 0
scalar OsgEarthNet.uav[3] utilizationCountIdleState 19
scalar OsgEarthNet.uav[3] utilizationFail 0
scalar OsgEarthNet.uav[3] simulationTime 259200
scalar OsgEarthNet.uav[4] utilizationSecMission 28895.62021169
scalar OsgEarthNet.uav[4] utilizationSecMaintenance 16718.401746581
scalar OsgEarthNet.uav[4] utilizationSecCharge 175385.01305606
scalar OsgEarthNet.uav[4] utilizationSecIdle 38200.963985674
scalar OsgEarthNet.uav[4] utilizationEnergyMission 138827.43595505
scalar OsgEarthNet.uav[4] utilizationEnergyMaintenance 79884.000621796
scalar OsgEarthNet.uav[4] utilizationEnergyCharge 216718.64257812
scalar OsgEarthNet.uav[4] utilizationEnergyOverdrawMission 0
scalar OsgEarthNet.uav[4] utilizationEnergyOverdrawMaintenance 0
scalar OsgEarthNet.uav[4] utilizationCountMissions 56
scalar OsgEarthNet.uav[4] utilizationCountManeuversMission 729
scalar OsgEarthNet.uav[4] utilizationCountManeuversMaintenance 112
scalar OsgEarthNet.uav[4] utilizationCountChargeState 56
scalar OsgEarthNet.uav[4] utilizationCountOverdrawnAfterMission 0
scalar OsgEarthNet.uav[4] utilizationCountIdleState 56
scalar OsgEarthNet.uav[4] utilizationFail 0
scalar OsgEarthNet.uav[4] simulationTime 259200
scalar OsgEarthNet.uav[5] utilizationSecMission 34069.47395559
scalar OsgEarthNet.uav[5] utilizationSecMaintenance 13019.778698572
scalar OsgEarthNet.uav[5] utilizationSecCharge 170199.07329646
scalar OsgEarthNet.uav[5] utilizationSecIdle 41911.673049383
scalar OsgEarthNet.uav[5] utilizationEnergyMission 164041.79006195
scalar OsgEarthNet.uav[5] utilizationEnergyMaintenance 60467.842144012
scalar OsgEarthNet.uav[5] utilizationEnergyCharge 222435.45751953
scalar OsgEarthNet.uav[5] utilizationEnergyOverdrawMission 0
scalar OsgEarthNet.uav[5] utilizationEnergyOverdrawMaintenance 0
scalar OsgEarthNet.uav[5] utilizationCountMissions 48
scalar OsgEarthNet.uav[5] utilizationCountManeuversMission 1003
scalar OsgEarthNet.uav[5] utilizationCountManeuversMaintenance 96
scalar OsgEarthNet.uav[5] utilizationCountChargeState 48
scalar OsgEarthNet.uav[5] utilizationCountOverdrawnAfterMission 0
scalar OsgEarthNet.uav[5] utilizationCountIdleState 47
scalar OsgEarthNet.uav[5] utilizationFail 0
scalar OsgEarthNet.uav[5] simulationTime 259200
scalar OsgEarthNet.uav[6] utilizationSecMission 6563.1257629014
scalar OsgEarthNet.uav[6] utilizationSecMaintenance 3824.9546291357
scalar OsgEarthNet.uav[6] utilizationSecCharge 38290
scalar OsgEarthNet.uav[6] utilizationSecIdle 210521.91860796
scalar OsgEarthNet.uav[6] utilizationEnergyMission 30928.63835144
scalar OsgEarthNet.uav[6] utilizationEnergyMaintenance 18023.950565338
scalar OsgEarthNet.uav[6] utilizationEnergyCharge 49092.789550781
scalar OsgEarthNet.uav[6] utilizationEnergyOverdrawMission 0
scalar OsgEarthNet.uav[6] utilizationEnergyOverdrawMaintenance 0
scalar OsgEarthNet.uav[6] utilizationCountMissions 11
scalar OsgEarthNet.uav[6] utilizationCountManeuversMission 198
scalar OsgEarthNet.uav[6] utilizationCountManeuversMaintenance 22
scalar OsgEarthNet.uav[6] utilizationCountChargeState 11
scalar OsgEarthNet.uav[6] utilizationCountOverdrawnAfterMission 0
scalar OsgEarthNet.uav[6] utilizationCountIdleState 12
scalar OsgEarthNet.uav[6] utilizationFail 0
scalar OsgEarthNet.uav[6] simulationTime 259200
scalar OsgEarthNet.uav[7] utilizationSecMission 29139.422064749
scalar OsgEarthNet.uav[7] utilizationSecMaintenance 15890.556661106
scalar OsgEarthNet.uav[7] utilizationSecCharge 169590
scalar OsgEarthNet.uav[7] utilizationSecIdle 44580.020274145
scalar OsgEarthNet.uav[7] utilizationEnergyMission 139957.53749084
scalar OsgEarthNet.uav[7] utilizationEnergyMaintenance 75911.729434496
scalar OsgEarthNet.uav[7] utilizationEnergyCharge 211679.84033203
scalar OsgEarthNet.uav[7] utilizationEnergyOverdrawMission 0
scalar OsgEarthNet.uav[7] utilizationEnergyOverdrawMaintenance 0
scalar OsgEarthNet.uav[7] utilizationCountMissions 53
scalar OsgEarthNet.uav[7] utilizationCountManeuversMission 789
scalar OsgEarthNet.uav[7] utilizationCountManeuversMaintenance 106
scalar OsgEarthNet.uav[7] utilizationCountChargeState 52
scalar OsgEarthNet.uav[7] utilizationCountOverdrawnAfterMission 0
scalar OsgEarthNet.uav[7] utilizationCountIdleState 53
scalar OsgEarthNet.uav[7] utilizationFail 0
scalar OsgEarthNet.uav[7] simulationTime 259200
scalar OsgEarthNet.uav[8] utilizationSecMission 32744.180296912
scalar OsgEarthNet.uav[8] utilizationSecMaintenance 13668.777827335
scalar OsgEarthNet.uav[8] utilizationSecCharge 170730
scalar OsgEarthNet.uav[8] utilizationSecIdle 42057.040875753
scalar OsgEarthNet.uav[8] utilizationEnergyMission 159036.50622559
scalar OsgEarthNet.uav[8] utilizationEnergyMaintenance 63443.266490936
scalar OsgEarthNet.uav[8] utilizationEnergyCharge 221477.90283203
scalar OsgEarthNet.uav[8] utilizationEnergyOverdrawMission 0
scalar OsgEarthNet.uav[8] utilizationEnergyOverdrawMaintenance 0
scalar OsgEarthNet.uav[8] utilizationCountMissions 48
scalar OsgEarthNet.uav[8] utilizationCountManeuversMission 971
scalar OsgEarthNet.uav[8] utilizationCountManeuversMaintenance 96
scalar OsgEarthNet.uav[8] utilizationCountChargeState 48
scalar OsgEarthNet.uav[8] utilizationCountOverdrawnAfterMission 0
scalar OsgEarthNet.uav[8] utilizationCountIdleState 48
scalar OsgEarthNet.uav[8] utilizationFail 0
scalar OsgEarthNet.uav[8] simulationTime 259200
scalar OsgEarthNet.uav[9] utilizationSecMission 7283.1257629014
scalar OsgEarthNet.uav[9] utilizationSecMaintenance 4185.0190340164
scalar OsgEarthNet.uav[9] utilizationSecCharge 42050
scalar OsgEarthNet.uav[9] utilizationSecIdle 205681.85420308
scalar OsgEarthNet.uav[9] utilizationEnergyMission 36370.417476654
scalar OsgEarthNet.uav[9] utilizationEnergyMaintenance 19836.854476929
scalar OsgEarthNet.uav[9] utilizationEnergyCharge 54214.730957031
scalar OsgEarthNet.uav[9] utilizationEnergyOverdrawMission 0
scalar OsgEarthNet.uav[9] utilizationEnergyOverdrawMaintenance 0
scalar OsgEarthNet.uav[9] utilizationCountMissions 12
scalar OsgEarthNet.uav[9] utilizationCountManeuversMission 234
scalar OsgEarthNet.uav[9] utilizationCountManeuversMaintenance 24
scalar OsgEarthNet.uav[9] utilizationCountChargeState 12
scalar OsgEarthNet.uav[9] utilizationCountOverdrawnAfterMission 0
scalar OsgEarthNet.uav[9] utilizationCountIdleState 13
scalar OsgEarthNet.uav[9] utilizationFail 0
scalar OsgEarthNet.uav[9] simulationTime 259200
scalar OsgEarthNet.uav[10] utilizationSecMission 17166.876678383
scalar OsgEarthNet.uav[10] utilizationSecMaintenance 10888.051660969
scalar OsgEarthNet.uav[10] utilizationSecCharge 105480
scalar OsgEarthNet.uav[10] utilizationSecIdle 125665.07066065
scalar OsgEarthNet.uav[10] utilizationEnergyMission 83414.801944733
scalar OsgEarthNet.uav[10] utilizationEnergyMaintenance 52049.329292297
scalar OsgEarthNet.uav[10] utilizationEnergyCharge 135996.56933594
scalar OsgEarthNet.uav[10] utilizationEnergyOverdrawMission 0
scalar OsgEarthNet.uav[10] utilizationEnergyOverdrawMaintenance 0
scalar OsgEarthNet.uav[10] utilizationCountMissions 30
scalar OsgEarthNet.uav[10] utilizationCountManeuversMission 572
scalar OsgEarthNet.uav[10] utilizationCountManeuversMaintenance 60
scalar OsgEarthNet.uav[10] utilizationCountChargeState 30
scalar OsgEarthNet.uav[10] utilizationCountOverdrawnAfterMission 0
scalar OsgEarthNet.uav[10] utilizationCountIdleState 31
scalar OsgEarthNet.uav[10] utilizationFail 0
scalar OsgEarthNet.uav[10] simulationTime 259200
scalar OsgEarthNet.uav[11] utilizationSecMission 31383.136144736
scalar OsgEarthNet.uav[11] utilizationSecMaintenance 14859.855572117
scalar OsgEarthNet.uav[11] utilizationSecCharge 168615.00577643
scalar OsgEarthNet.uav[11] utilizationSecIdle 44342.001506722
scalar OsgEarthNet.uav[11] utilizationEnergyMission 151814.46878815
scalar OsgEarthNet.uav[11] utilizationEnergyMaintenance 69809.579460144
scalar OsgEarthNet.uav[11] utilizationEnergyCharge 217247.53686523
scalar OsgEarthNet.uav[11] utilizationEnergyOverdrawMission 0
scalar OsgEarthNet.uav[11] utilizationEnergyOverdrawMaintenance 0
scalar OsgEarthNet.uav[11] utilizationCountMissions 49
scalar OsgEarthNet.uav[11] utilizationCountManeuversMission 1067
scalar OsgEarthNet.uav[11] utilizationCountManeuversMaintenance 98
scalar OsgEarthNet.uav[11] utilizationCountChargeState 49
scalar OsgEarthNet.uav[11] utilizationCountOverdrawnAfterMission 0
scalar OsgEarthNet.uav[11] utilizationCountIdleState 49
scalar OsgEarthNet.uav[11] utilizationFail 0
scalar OsgEarthNet.uav[11] simulationTime 259200
scalar OsgEarthNet.uav[12] utilizationSecMission 33988.934928372
scalar OsgEarthNet.uav[12] utilizationSecMaintenance 13983.616576618
scalar OsgEarthNet.uav[12] utilizationSecCharge 177830
scalar OsgEarthNet.uav[12] utilizationSecIdle 33397.44749501
scalar OsgEarthNet.uav[12] utilizationEnergyMission 166467.75299072
scalar OsgEarthNet.uav[12] utilizationEnergyMaintenance 64310.138694763
scalar OsgEarthNet.uav[12] utilizationEnergyCharge 231098.765625
scalar OsgEarthNet.uav[12] utilizationEnergyOverdrawMission 0
scalar OsgEarthNet.uav[12] utilizationEnergyOverdrawMaintenance 0
scalar OsgEarthNet.uav[12] utilizationCountMissions 50
scalar OsgEarthNet.uav[12] utilizationCountManeuversMission 1060
scalar OsgEarthNet.uav[12] utilizationCountManeuversMaintenance 100
scalar OsgEarthNet.uav[12] utilizationCountChargeState 50
scalar OsgEarthNet.uav[12] utilizationCountOverdrawnAfterMission 0
scalar OsgEarthNet.uav[12] utilizationCountIdleState 50
scalar OsgEarthNet.uav[12] utilizationFail 0
scalar OsgEarthNet.uav[12] simulationTime 259200
scalar OsgEarthNet.uav[13] utilizationSecMission 12563.125762901
scalar OsgEarthNet.uav[13] utilizationSecMaintenance 9651.5983987238
scalar OsgEarthNet.uav[13] utilizationSecCharge 84263.761177425
scalar OsgEarthNet.uav[13] utilizationSecIdle 152721.51366095
scalar OsgEarthNet.uav[13] utilizationEnergyMission 62227.928009033
scalar OsgEarthNet.uav[13] utilizationEnergyMaintenance 45596.310070038
scalar OsgEarthNet.uav[13] utilizationEnergyCharge 109072.39306641
scalar OsgEarthNet.uav[13] utilizationEnergyOverdrawMission 0
scalar OsgEarthNet.uav[13] utilizationEnergyOverdrawMaintenance 0
scalar OsgEarthNet.uav[13] utilizationCountMissions 24
scalar OsgEarthNet.uav[13] utilizationCountManeuversMission 498
scalar OsgEarthNet.uav[13] utilizationCountManeuversMaintenance 48
scalar OsgEarthNet.uav[13] utilizationCountChargeState 24
scalar OsgEarthNet.uav[13] utilizationCountOverdrawnAfterMission 0
scalar OsgEarthNet.uav[13] utilizationCountIdleState 24
scalar OsgEarthNet.uav[13] utilizationFail 0
scalar OsgEarthNet.uav[13] simulationTime 259200
scalar OsgEarthNet.uav[14] utilizationSecMission 26798.63529304
scalar OsgEarthNet.uav[14] utilizationSecMaintenance 16884.347117004
scalar OsgEarthNet.uav[14] utilizationSecCharge 168645.00958996
scalar OsgEarthNet.uav[14] utilizationSecIdle 46872.007
scalar OsgEarthNet.uav[14] utilizationEnergyMission 129205.06547928
scalar OsgEarthNet.uav[14] utilizationEnergyMaintenance 80838.601387024
scalar OsgEarthNet.uav[14] utilizationEnergyCharge 207934.62597656
scalar OsgEarthNet.uav[14] utilizationEnergyOverdrawMission 0
scalar OsgEarthNet.uav[14] utilizationEnergyOverdrawMaintenance 0
scalar OsgEarthNet.uav[14] utilizationCountMissions 54
scalar OsgEarthNet.uav[14] utilizationCountManeuversMission 809
scalar OsgEarthNet.uav[14] utilizationCountManeuversMaintenance 108
scalar OsgEarthNet.uav[14] utilizationCountChargeState 54
scalar OsgEarthNet.uav[14] utilizationCountOverdrawnAfterMission 0
scalar OsgEarthNet.uav[14] utilizationCountIdleState 54
scalar OsgEarthNet.uav[14] utilizationFail 0
scalar OsgEarthNet.uav[14] simulationTime 259200
scalar OsgEarthNet.uav[15] utilizationSecMission 34721.056811031
scalar OsgEarthNet.uav[15] utilizationSecMaintenance 13621.437077557
scalar OsgEarthNet.uav[15] utilizationSecCharge 174663.00717024
scalar OsgEarthNet.uav[15] utilizationSecIdle 36194.497941176
scalar OsgEarthNet.uav[15] utilizationEnergyMission 170510.29608154
scalar OsgEarthNet.uav[15] utilizationEnergyMaintenance 62240.920795441
scalar OsgEarthNet.uav[15] utilizationEnergyCharge 227394.99346924
scalar OsgEarthNet.uav[15] utilizationEnergyOverdrawMission 0
scalar OsgEarthNet.uav[15] utilizationEnergyOverdrawMaintenance 0
scalar OsgEarthNet.uav[15] utilizationCountMissions 50
scalar OsgEarthNet.uav[15] utilizationCountManeuversMission 1103
scalar OsgEarthNet.uav[15] utilizationCountManeuversMaintenance 100
scalar OsgEarthNet.uav[15] utilizationCountChargeState 50
scalar OsgEarthNet.uav[15] utilizationCountOverdrawnAfterMission 0
scalar OsgEarthNet.uav[15] utilizationCountIdleState 48
scalar OsgEarthNet.uav[15] utilizationFail 0
scalar OsgEarthNet.uav[15] simulationTime 259200
scalar OsgEarthNet.uav[16] utilizationSecMission 19016.614015435
scalar OsgEarthNet.uav[16] utilizationSecMaintenance 10171.384984565
scalar OsgEarthNet.uav[16] utilizationSecCharge 105090
scalar OsgEarthNet.uav[16] utilizationSecIdle 124922
scalar OsgEarthNet.uav[16] utilizationEnergyMission 91216.721244812
scalar OsgEarthNet.uav[16] utilizationEnergyMaintenance 47698.880766404
scalar OsgEarthNet.uav[16] utilizationEnergyCharge 135038.06640625
scalar OsgEarthNet.uav[16] utilizationEnergyOverdrawMission 0
scalar OsgEarthNet.uav[16] utilizationEnergyOverdrawMaintenance 0
scalar OsgEarthNet.uav[16] utilizationCountMissions 31
scalar OsgEarthNet.uav[16] utilizationCountManeuversMission 553
scalar OsgEarthNet.uav[16] utilizationCountManeuversMaintenance 61
scalar OsgEarthNet.uav[16] utilizationCountChargeState 30
scalar OsgEarthNet.uav[16] utilizationCountOverdrawnAfterMission 0
scalar OsgEarthNet.uav[16] utilizationCountIdleState 31
scalar OsgEarthNet.uav[16] utilizationFail 0
scalar OsgEarthNet.uav[16] simulationTime 259200
scalar OsgEarthNet.uav[17] utilizationSecMission 28758.718479101
scalar OsgEarthNet.uav[17] utilizationSecMaintenance 16329.912996737
scalar OsgEarthNet.uav[17] utilizationSecCharge 170473.95763281
scalar OsgEarthNet.uav[17] utilizationSecIdle 43637.40989135
scalar OsgEarthNet.uav[17] utilizationEnergyMission 139633.87889481
scalar OsgEarthNet.uav[17] utilizationEnergyMaintenance 78011.706295013
scalar OsgEarthNet.uav[17] utilizationEnergyCharge 215213.01928711
scalar OsgEarthNet.uav[17] utilizationEnergyOverdrawMission 0
scalar OsgEarthNet.uav[17] utilizationEnergyOverdrawMaintenance 0
scalar OsgEarthNet.uav[17] utilizationCountMissions 52
scalar OsgEarthNet.uav[17] utilizationCountManeuversMission 873
scalar OsgEarthNet.uav[17] utilizationCountManeuversMaintenance 104
scalar OsgEarthNet.uav[17] utilizationCountChargeState 52
scalar OsgEarthNet.uav[17] utilizationCountOverdrawnAfterMission 0
scalar OsgEarthNet.uav[17] utilizationCountIdleState 52
scalar OsgEarthNet.uav[17] utilizationFail 0
scalar OsgEarthNet.uav[17] simulationTime 259200
scalar OsgEarthNet.uav[18] utilizationSecMission 34623.561568332
scalar OsgEarthNet.uav[18] utilizationSecMaintenance 13938.095951429
scalar OsgEarthNet.uav[18] utilizationSecCharge 176286.33648024
scalar OsgEarthNet.uav[18] utilizationSecIdle 34352.005
scalar OsgEarthNet.uav[18] utilizationEnergyMission 166990.73788071
scalar OsgEarthNet.uav[18] utilizationEnergyMaintenance 64727.745140076
scalar OsgEarthNet.uav[18] utilizationEnergyCharge 228919.11376953
scalar OsgEarthNet.uav[18] utilizationEnergyOverdrawMission 0
scalar OsgEarthNet.uav[18] utilizationEnergyOverdrawMaintenance 0
scalar OsgEarthNet.uav[18] utilizationCountMissions 50
scalar OsgEarthNet.uav[18] utilizationCountManeuversMission 1051
scalar OsgEarthNet.uav[18] utilizationCountManeuversMaintenance 100
scalar OsgEarthNet.uav[18] utilizationCountChargeState 50
scalar OsgEarthNet.uav[18] utilizationCountOverdrawnAfterMission 0
scalar OsgEarthNet.uav[18] utilizationCountIdleState 49
scalar OsgEarthNet.uav[18] utilizationFail 0
scalar OsgEarthNet.uav[18] simulationTime 259200
scalar OsgEarthNet.uav[19] utilizationSecMission 15777.217541245
scalar OsgEarthNet.uav[19] utilizationSecMaintenance 9790.7644587553
scalar OsgEarthNet.uav[19] utilizationSecCharge 94750
scalar OsgEarthNet.uav[19] utilizationSecIdle 138882.017
scalar OsgEarthNet.uav[19] utilizationEnergyMission 77401.584215915
scalar OsgEarthNet.uav[19] utilizationEnergyMaintenance 46315.817020416
scalar OsgEarthNet.uav[19] utilizationEnergyCharge 121884.89746094
scalar OsgEarthNet.uav[19] utilizationEnergyOverdrawMission 0
scalar OsgEarthNet.uav[19] utilizationEnergyOverdrawMaintenance 0
scalar OsgEarthNet.uav[19] utilizationCountMissions 27
scalar OsgEarthNet.uav[19] utilizationCountManeuversMission 529
scalar OsgEarthNet.uav[19] utilizationCountManeuversMaintenance 55
scalar OsgEarthNet.uav[19] utilizationCountChargeState 27
scalar OsgEarthNet.uav[19] utilizationCountOverdrawnAfterMission 0
scalar OsgEarthNet.uav[19] utilizationCountIdleState 28
scalar OsgEarthNet.uav[19] utilizationFail 0
scalar OsgEarthNet.uav[19] simulationTime 259200
scalar OsgEarthNet.uav[20] utilizationSecMission 14415.884411973
scalar OsgEarthNet.uav[20] utilizationSecMaintenance 9136.3233809315
scalar OsgEarthNet.uav[20] utilizationSecCharge 87740
scalar OsgEarthNet.uav[20] utilizationSecIdle 147907.7912071
scalar OsgEarthNet.uav[20] utilizationEnergyMission 68832.363315582
scalar OsgEarthNet.uav[20] utilizationEnergyMaintenance 43937.073753357
scalar OsgEarthNet.uav[20] utilizationEnergyCharge 112999.21630859
scalar OsgEarthNet.uav[20] utilizationEnergyOverdrawMission 0
scalar OsgEarthNet.uav[20] utilizationEnergyOverdrawMaintenance 0
scalar OsgEarthNet.uav[20] utilizationCountMissions 25
scalar OsgEarthNet.uav[20] utilizationCountManeuversMission 482
scalar OsgEarthNet.uav[20] utilizationCountManeuversMaintenance 50
scalar OsgEarthNet.uav[20] utilizationCountChargeState 25
scalar OsgEarthNet.uav[20] utilizationCountOverdrawnAfterMission 0
scalar OsgEarthNet.uav[20] utilizationCountIdleState 26
scalar OsgEarthNet.uav[20] utilizationFail 0
scalar OsgEarthNet.uav[20] simulationTime 259200
scalar OsgEarthNet.uav[21] utilizationSecMission 29366.467275023
scalar OsgEarthNet.uav[21] utilizationSecMaintenance 16593.320036253
scalar OsgEarthNet.uav[21] utilizationSecCharge 176680
scalar OsgEarthNet.uav[21] utilizationSecIdle 36560.211688724
scalar OsgEarthNet.uav[21] utilizationEnergyMission 140453.83808899
scalar OsgEarthNet.uav[21] utilizationEnergyMaintenance 78432.734100342
scalar OsgEarthNet.uav[21] utilizationEnergyCharge 218813.03955078
scalar OsgEarthNet.uav[21] utilizationEnergyOverdrawMission 0
scalar OsgEarthNet.uav[21] utilizationEnergyOverdrawMaintenance 0
scalar OsgEarthNet.uav[21] utilizationCountMissions 55
scalar OsgEarthNet.uav[21] utilizationCountManeuversMission 776
scalar OsgEarthNet.uav[21] utilizationCountManeuversMaintenance 110
scalar OsgEarthNet.uav[21] utilizationCountChargeState 55
scalar OsgEarthNet.uav[21] utilizationCountOverdrawnAfterMission 0
scalar OsgEarthNet.uav[21] utilizationCountIdleState 56
scalar OsgEarthNet.uav[21] utilizationFail 0
scalar OsgEarthNet.uav[21] simulationTime 259200
scalar OsgEarthNet.uav[22] utilizationSecMission 34105.458762274
scalar OsgEarthNet.uav[22] utilizationSecMaintenance 14417.900624658
scalar OsgEarthNet.uav[22] utilizationSecCharge 178854.63561307
scalar OsgEarthNet.uav[22] utilizationSecIdle 31822.004
scalar OsgEarthNet.uav[22] utilizationEnergyMission 167446.40734482
scalar OsgEarthNet.uav[22] utilizationEnergyMaintenance 66483.644794464
scalar OsgEarthNet.uav[22] utilizationEnergyCharge 232668.83911133
scalar OsgEarthNet.uav[22] utilizationEnergyOverdrawMission 0
scalar OsgEarthNet.uav[22] utilizationEnergyOverdrawMaintenance 0
scalar OsgEarthNet.uav[22] utilizationCountMissions 51
scalar OsgEarthNet.uav[22] utilizationCountManeuversMission 1163
scalar OsgEarthNet.uav[22] utilizationCountManeuversMaintenance 102
scalar OsgEarthNet.uav[22] utilizationCountChargeState 51
scalar OsgEarthNet.uav[22] utilizationCountOverdrawnAfterMission 0
scalar OsgEarthNet.uav[22] utilizationCountIdleState 49
scalar OsgEarthNet.uav[22] utilizationFail 0
scalar OsgEarthNet.uav[22] simulationTime 259200
scalar OsgEarthNet.uav[23] utilizationSecMission 14315.993487052
scalar OsgEarthNet.uav[23] utilizationSecMaintenance 8773.5272197959
scalar OsgEarthNet.uav[23] utilizationSecCharge 87700
scalar OsgEarthNet.uav[23] utilizationSecIdle 148410.47829315
scalar OsgEarthNet.uav[23] utilizationEnergyMission 70843.122249603
scalar OsgEarthNet.uav[23] utilizationEnergyMaintenance 41833.751487732
scalar OsgEarthNet.uav[23] utilizationEnergyCharge 112713.70947266
scalar OsgEarthNet.uav[23] utilizationEnergyOverdrawMission 0
scalar OsgEarthNet.uav[23] utilizationEnergyOverdrawMaintenance 0
scalar OsgEarthNet.uav[23] utilizationCountMissions 25
scalar OsgEarthNet.uav[23] utilizationCountManeuversMission 460
scalar OsgEarthNet.uav[23] utilizationCountManeuversMaintenance 50
scalar OsgEarthNet.uav[23] utilizationCountChargeState 25
scalar OsgEarthNet.uav[23] utilizationCountOverdrawnAfterMission 0
scalar OsgEarthNet.uav[23] utilizationCountIdleState 26
scalar OsgEarthNet.uav[23] utilizationFail 0
scalar OsgEarthNet.uav[23] simulationTime 259200
scalar OsgEarthNet.uav[24] utilizationSecMission 29091.866152245
scalar OsgEarthNet.uav[24] utilizationSecMaintenance 17225.488400081
scalar OsgEarthNet.uav[24] utilizationSecCharge 177677.93874864
scalar OsgEarthNet.uav[24] utilizationSecIdle 35204.705699036
scalar OsgEarthNet.uav[24] utilizationEnergyMission 139682.71440125
scalar OsgEarthNet.uav[24] utilizationEnergyMaintenance 81662.763103485
scalar OsgEarthNet.uav[24] utilizationEnergyCharge 220504.76586914
scalar OsgEarthNet.uav[24] utilizationEnergyOverdrawMission 0
scalar OsgEarthNet.uav[24] utilizationEnergyOverdrawMaintenance 0
scalar OsgEarthNet.uav[24] utilizationCountMissions 56
scalar OsgEarthNet.uav[24] utilizationCountManeuversMission 798
scalar OsgEarthNet.uav[24] utilizationCountManeuversMaintenance 112
scalar OsgEarthNet.uav[24] utilizationCountChargeState 56
scalar OsgEarthNet.uav[24] utilizationCountOverdrawnAfterMission 0
scalar OsgEarthNet.uav[24] utilizationCountIdleState 56
scalar OsgEarthNet.uav[24] utilizationFail 0
scalar OsgEarthNet.uav[24] simulationTime 259200
scalar OsgEarthNet.uav[25] utilizationSecMission 34753.920425371
scalar OsgEarthNet.uav[25] utilizationSecMaintenance 13451.033959798
scalar OsgEarthNet.uav[25] utilizationSecCharge 176173.04161483
scalar OsgEarthNet.uav[25] utilizationSecIdle 34822.003
scalar OsgEarthNet.uav[25] utilizationEnergyMission 170474.87792587
scalar OsgEarthNet.uav[25] utilizationEnergyMaintenance 62881.448051453
scalar OsgEarthNet.uav[25] utilizationEnergyCharge 228762.53198242
scalar OsgEarthNet.uav[25] utilizationEnergyOverdrawMission 0
scalar OsgEarthNet.uav[25] utilizationEnergyOverdrawMaintenance 0
scalar OsgEarthNet.uav[25] utilizationCountMissions 50
scalar OsgEarthNet.uav[25] utilizationCountManeuversMission 1102
scalar OsgEarthNet.uav[25] utilizationCountManeuversMaintenance 100
scalar OsgEarthNet.uav[25] utilizationCountChargeState 50
scalar OsgEarthNet.uav[25] utilizationCountOverdrawnAfterMission 0
scalar OsgEarthNet.uav[25] utilizationCountIdleState 49
scalar OsgEarthNet.uav[25] utilizationFail 0
scalar OsgEarthNet.uav[25] simulationTime 259200
scalar OsgEarthNet.uav[26] utilizationSecMission 15667.501830963
scalar OsgEarthNet.uav[26] utilizationSecMaintenance 8844.0792368568
scalar OsgEarthNet.uav[26] utilizationSecCharge 90246.40693218
scalar OsgEarthNet.uav[26] utilizationSecIdle 144442.011
scalar OsgEarthNet.uav[26] utilizationEnergyMission 75843.78332901
scalar OsgEarthNet.uav[26] utilizationEnergyMaintenance 42042.873435974
scalar OsgEarthNet.uav[26] utilizationEnergyCharge 116720.21484375
scalar OsgEarthNet.uav[26] utilizationEnergyOverdrawMission 0
scalar OsgEarthNet.uav[26] utilizationEnergyOverdrawMaintenance 0
scalar OsgEarthNet.uav[26] utilizationCountMissions 26
scalar OsgEarthNet.uav[26] utilizationCountManeuversMission 471
scalar OsgEarthNet.uav[26] utilizationCountManeuversMaintenance 52
scalar OsgEarthNet.uav[26] utilizationCountChargeState 26
scalar OsgEarthNet.uav[26] utilizationCountOverdrawnAfterMission 0
scalar OsgEarthNet.uav[26] utilizationCountIdleState 26
scalar OsgEarthNet.uav[26] utilizationFail 0
scalar OsgEarthNet.uav[26] simulationTime 259200
scalar OsgEarthNet.uav[27] utilizationSecMission 30353.2475311
scalar OsgEarthNet.uav[27] utilizationSecMaintenance 14842.239780401
scalar OsgEarthNet.uav[27] utilizationSecCharge 169896.15808562
scalar OsgEarthNet.uav[27] utilizationSecIdle 44108.353602879
scalar OsgEarthNet.uav[27] utilizationEnergyMission 145898.93267059
scalar OsgEarthNet.uav[27] utilizationEnergyMaintenance 70259.448074341
scalar OsgEarthNet.uav[27] utilizationEnergyCharge 215081.953125
scalar OsgEarthNet.uav[27] utilizationEnergyOverdrawMission 0
scalar OsgEarthNet.uav[27] utilizationEnergyOverdrawMaintenance 0
scalar OsgEarthNet.uav[27] utilizationCountMissions 51
scalar OsgEarthNet.uav[27] utilizationCountManeuversMission 829
scalar OsgEarthNet.uav[27] utilizationCountManeuversMaintenance 102
scalar OsgEarthNet.uav[27] utilizationCountChargeState 51
scalar OsgEarthNet.uav[27] utilizationCountOverdrawnAfterMission 0
scalar OsgEarthNet.uav[27] utilizationCountIdleState 51
scalar OsgEarthNet.uav[27] utilizationFail 0
scalar OsgEarthNet.uav[27] simulationTime 259200
scalar OsgEarthNet.uav[28] utilizationSecMission 33088.31487479
scalar OsgEarthNet.uav[28] utilizationSecMaintenance 14675.93542441
scalar OsgEarthNet.uav[28] utilizationSecCharge 177270
scalar OsgEarthNet.uav[28] utilizationSecIdle 34165.7487008
scalar OsgEarthNet.uav[28] utilizationEnergyMission 159333.96803004
scalar OsgEarthNet.uav[28] utilizationEnergyMaintenance 68081.126499176
scalar OsgEarthNet.uav[28] utilizationEnergyCharge 228976.99121094
scalar OsgEarthNet.uav[28] utilizationEnergyOverdrawMission 0
scalar OsgEarthNet.uav[28] utilizationEnergyOverdrawMaintenance 0
scalar OsgEarthNet.uav[28] utilizationCountMissions 50
scalar OsgEarthNet.uav[28] utilizationCountManeuversMission 1158
scalar OsgEarthNet.uav[28] utilizationCountManeuversMaintenance 101
scalar OsgEarthNet.uav[28] utilizationCountChargeState 50
scalar OsgEarthNet.uav[28] utilizationCountOverdrawnAfterMission 0
scalar OsgEarthNet.uav[28] utilizationCountIdleState 51
scalar OsgEarthNet.uav[28] utilizationFail 0
scalar OsgEarthNet.uav[28] simulationTime 259200
scalar OsgEarthNet.uav[29] utilizationSecMission 34182.44558524
scalar OsgEarthNet.uav[29] utilizationSecMaintenance 15075.898512546
scalar OsgEarthNet.uav[29] utilizationSecCharge 180799.65490221
scalar OsgEarthNet.uav[29] utilizationSecIdle 29142
scalar OsgEarthNet.uav[29] utilizationEnergyMission 165871.32046127
scalar OsgEarthNet.uav[29] utilizationEnergyMaintenance 69165.095973969
scalar OsgEarthNet.uav[29] utilizationEnergyCharge 234836.45556641
scalar OsgEarthNet.uav[29] utilizationEnergyOverdrawMission 0
scalar OsgEarthNet.uav[29] utilizationEnergyOverdrawMaintenance 0
scalar OsgEarthNet.uav[29] utilizationCountMissions 52
scalar OsgEarthNet.uav[29] utilizationCountManeuversMission 1180
scalar OsgEarthNet.uav[29] utilizationCountManeuversMaintenance 103
scalar OsgEarthNet.uav[29] utilizationCountChargeState 52
scalar OsgEarthNet.uav[29] utilizationCountOverdrawnAfterMission 0
scalar OsgEarthNet.uav[29] utilizationCountIdleState 51
scalar OsgEarthNet.uav[29] utilizationFail 0
scalar OsgEarthNet.uav[29] simulationTime 259200
scalar OsgEarthNet.uav[30] utilizationSecMission 15737.134717134
scalar OsgEarthNet.uav[30] utilizationSecMaintenance 9600.0318026309
scalar OsgEarthNet.uav[30] utilizationSecCharge 93660.817480235
scalar OsgEarthNet.uav[30] utilizationSecIdle 140202.015
scalar OsgEarthNet.uav[30] utilizationEnergyMission 76192.013179779
scalar OsgEarthNet.uav[30] utilizationEnergyMaintenance 45793.447940826
scalar OsgEarthNet.uav[30] utilizationEnergyCharge 121569.49267578
scalar OsgEarthNet.uav[30] utilizationEnergyOverdrawMission 0
scalar OsgEarthNet.uav[30] utilizationEnergyOverdrawMaintenance 0
scalar OsgEarthNet.uav[30] utilizationCountMissions 27
scalar OsgEarthNet.uav[30] utilizationCountManeuversMission 496
scalar OsgEarthNet.uav[30] utilizationCountManeuversMaintenance 54
scalar OsgEarthNet.uav[30] utilizationCountChargeState 27
scalar OsgEarthNet.uav[30] utilizationCountOverdrawnAfterMission 0
scalar OsgEarthNet.uav[30] utilizationCountIdleState 27
scalar OsgEarthNet.uav[30] utilizationFail 0
scalar OsgEarthNet.uav[30] simulationTime 259200
scalar OsgEarthNet.uav[31] utilizationSecMission 29450.153580129
scalar OsgEarthNet.uav[31] utilizationSecMaintenance 16405.233530354
scalar OsgEarthNet.uav[31] utilizationSecCharge 175310
scalar OsgEarthNet.uav[31] utilizationSecIdle 38034.611889516
scalar OsgEarthNet.uav[31] utilizationEnergyMission 139839.57201385
scalar OsgEarthNet.uav[31] utilizationEnergyMaintenance 78188.748439776
scalar OsgEarthNet.uav[31] utilizationEnergyCharge 212849.33300781
scalar OsgEarthNet.uav[31] utilizationEnergyOverdrawMission 0
scalar OsgEarthNet.uav[31] utilizationEnergyOverdrawMaintenance 0
scalar OsgEarthNet.uav[31] utilizationCountMissions 58
scalar OsgEarthNet.uav[31] utilizationCountManeuversMission 693
scalar OsgEarthNet.uav[31] utilizationCountManeuversMaintenance 116
scalar OsgEarthNet.uav[31] utilizationCountChargeState 57
scalar OsgEarthNet.uav[31] utilizationCountOverdrawnAfterMission 0
scalar OsgEarthNet.uav[31] utilizationCountIdleState 58
scalar OsgEarthNet.uav[31] utilizationFail 0
scalar OsgEarthNet.uav[31] simulationTime 259200
scalar OsgEarthNet.uav[32] utilizationSecMission 33921.983063023
scalar OsgEarthNet.uav[32] utilizationSecMaintenance 14037.69733828
scalar OsgEarthNet.uav[32] utilizationSecCharge 177650
scalar OsgEarthNet.uav[32] utilizationSecIdle 33590.318598697
scalar OsgEarthNet.uav[32] utilizationEnergyMission 166258.33481598
scalar OsgEarthNet.uav[32] utilizationEnergyMaintenance 65598.695056915
scalar OsgEarthNet.uav[32] utilizationEnergyCharge 230299.15234375
scalar OsgEarthNet.uav[32] utilizationEnergyOverdrawMission 0
scalar OsgEarthNet.uav[32] utilizationEnergyOverdrawMaintenance 0
scalar OsgEarthNet.uav[32] utilizationCountMissions 50
scalar OsgEarthNet.uav[32] utilizationCountManeuversMission 1105
scalar OsgEarthNet.uav[32] utilizationCountManeuversMaintenance 100
scalar OsgEarthNet.uav[32] utilizationCountChargeState 50
scalar OsgEarthNet.uav[32] utilizationCountOverdrawnAfterMission 0
scalar OsgEarthNet.uav[32] utilizationCountIdleState 50
scalar OsgEarthNet.uav[32] utilizationFail 0
scalar OsgEarthNet.uav[32] simulationTime 259200
scalar OsgEarthNet.uav[33] utilizationSecMission 14784.376068062
scalar OsgEarthNet.uav[33] utilizationSecMaintenance 10398.035223877
scalar OsgEarthNet.uav[33] utilizationSecCharge 94170
scalar OsgEarthNet.uav[33] utilizationSecIdle 139847.58770806
scalar OsgEarthNet.uav[33] utilizationEnergyMission 73470.874088287
scalar OsgEarthNet.uav[33] utilizationEnergyMaintenance 49134.23777771
scalar OsgEarthNet.uav[33] utilizationEnergyCharge 120950.24560547
scalar OsgEarthNet.uav[33] utilizationEnergyOverdrawMission 0
scalar OsgEarthNet.uav[33] utilizationEnergyOverdrawMaintenance 0
scalar OsgEarthNet.uav[33] utilizationCountMissions 27
scalar OsgEarthNet.uav[33] utilizationCountManeuversMission 557
scalar OsgEarthNet.uav[33] utilizationCountManeuversMaintenance 54
scalar OsgEarthNet.uav[33] utilizationCountChargeState 27
scalar OsgEarthNet.uav[33] utilizationCountOverdrawnAfterMission 0
scalar OsgEarthNet.uav[33] utilizationCountIdleState 28
scalar OsgEarthNet.uav[33] utilizationFail 0
scalar OsgEarthNet.uav[33] simulationTime 259200
scalar OsgEarthNet.uav[34] utilizationSecMission 28488.371701354
scalar OsgEarthNet.uav[34] utilizationSecMaintenance 16120.584391129
scalar OsgEarthNet.uav[34] utilizationSecCharge 169780
scalar OsgEarthNet.uav[34] utilizationSecIdle 44811.042907517
scalar OsgEarthNet.uav[34] utilizationEnergyMission 136586.19565201
scalar OsgEarthNet.uav[34] utilizationEnergyMaintenance 75829.006141663
scalar OsgEarthNet.uav[34] utilizationEnergyCharge 210199.52587891
scalar OsgEarthNet.uav[34] utilizationEnergyOverdrawMission 0
scalar OsgEarthNet.uav[34] utilizationEnergyOverdrawMaintenance 0
scalar OsgEarthNet.uav[34] utilizationCountMissions 53
scalar OsgEarthNet.uav[34] utilizationCountManeuversMission 763
scalar OsgEarthNet.uav[34] utilizationCountManeuversMaintenance 106
scalar OsgEarthNet.uav[34] utilizationCountChargeState 53
scalar OsgEarthNet.uav[34] utilizationCountOverdrawnAfterMission 0
scalar OsgEarthNet.uav[34] utilizationCountIdleState 54
scalar OsgEarthNet.uav[34] utilizationFail 0
scalar OsgEarthNet.uav[34] simulationTime 259200
scalar OsgEarthNet.uav[35] utilizationSecMission 34621.17675825
scalar OsgEarthNet.uav[35] utilizationSecMaintenance 14229.009116681
scalar OsgEarthNet.uav[35] utilizationSecCharge 177405.92420509
scalar OsgEarthNet.uav[35] utilizationSecIdle 32943.888919977
scalar OsgEarthNet.uav[35] utilizationEnergyMission 165857.00696182
scalar OsgEarthNet.uav[35] utilizationEnergyMaintenance 65203.464279175
scalar OsgEarthNet.uav[35] utilizationEnergyCharge 229900.39697266
scalar OsgEarthNet.uav[35] utilizationEnergyOverdrawMission 0
scalar OsgEarthNet.uav[35] utilizationEnergyOverdrawMaintenance 0
scalar OsgEarthNet.uav[35] utilizationCountMissions 50
scalar OsgEarthNet.uav[35] utilizationCountManeuversMission 1055
scalar OsgEarthNet.uav[35] utilizationCountManeuversMaintenance 100
scalar OsgEarthNet.uav[35] utilizationCountChargeState 50
scalar OsgEarthNet.uav[35] utilizationCountOverdrawnAfterMission 0
scalar OsgEarthNet.uav[35] utilizationCountIdleState 50
scalar OsgEarthNet.uav[35] utilizationFail 0
scalar OsgEarthNet.uav[35] simulationTime 259200
scalar OsgEarthNet.uav[36] utilizationSecMission 15530.803240544
scalar OsgEarthNet.uav[36] utilizationSecMaintenance 10737.176759456
scalar OsgEarthNet.uav[36] utilizationSecCharge 98020
scalar OsgEarthNet.uav[36] utilizationSecIdle 134912.019
scalar OsgEarthNet.uav[36] utilizationEnergyMission 75809.597585102
scalar OsgEarthNet.uav[36] utilizationEnergyMaintenance 50882.386581421
scalar OsgEarthNet.uav[36] utilizationEnergyCharge 126043.12158203
scalar OsgEarthNet.uav[36] utilizationEnergyOverdrawMission 0
scalar OsgEarthNet.uav[36] utilizationEnergyOverdrawMaintenance 0
scalar OsgEarthNet.uav[36] utilizationCountMissions 28
scalar OsgEarthNet.uav[36] utilizationCountManeuversMission 563
scalar OsgEarthNet.uav[36] utilizationCountManeuversMaintenance 57
scalar OsgEarthNet.uav[36] utilizationCountChargeState 28
scalar OsgEarthNet.uav[36] utilizationCountOverdrawnAfterMission 0
scalar OsgEarthNet.uav[36] utilizationCountIdleState 29
scalar OsgEarthNet.uav[36] utilizationFail 0
scalar OsgEarthNet.uav[36] simulationTime 259200
scalar OsgEarthNet.uav[37] utilizationSecMission 29067.871415767
scalar OsgEarthNet.uav[37] utilizationSecMaintenance 17236.164373333
scalar OsgEarthNet.uav[37] utilizationSecCharge 177233.9572109
scalar OsgEarthNet.uav[37] utilizationSecIdle 35662.006
scalar OsgEarthNet.uav[37] utilizationEnergyMission 139373.04914474
scalar OsgEarthNet.uav[37] utilizationEnergyMaintenance 81566.571857452
scalar OsgEarthNet.uav[37] utilizationEnergyCharge 221771.91455078
scalar OsgEarthNet.uav[37] utilizationEnergyOverdrawMission 0
scalar OsgEarthNet.uav[37] utilizationEnergyOverdrawMaintenance 0
scalar OsgEarthNet.uav[37] utilizationCountMissions 55
scalar OsgEarthNet.uav[37] utilizationCountManeuversMission 865
scalar OsgEarthNet.uav[37] utilizationCountManeuversMaintenance 110
scalar OsgEarthNet.uav[37] utilizationCountChargeState 55
scalar OsgEarthNet.uav[37] utilizationCountOverdrawnAfterMission 0
scalar OsgEarthNet.uav[37] utilizationCountIdleState 55
scalar OsgEarthNet.uav[37] utilizationFail 0
scalar OsgEarthNet.uav[37] simulationTime 259200
scalar OsgEarthNet.uav[38] utilizationSecMission 33660.265803388
scalar OsgEarthNet.uav[38] utilizationSecMaintenance 14558.328328376
scalar OsgEarthNet.uav[38] utilizationSecCharge 175990.69681115
scalar OsgEarthNet.uav[38] utilizationSecIdle 34990.70805709
scalar OsgEarthNet.uav[38] utilizationEnergyMission 164139.3706131
scalar OsgEarthNet.uav[38] utilizationEnergyMaintenance 67012.84828949
scalar OsgEarthNet.uav[38] utilizationEnergyCharge 228780.59667969
scalar OsgEarthNet.uav[38] utilizationEnergyOverdrawMission 0
scalar OsgEarthNet.uav[38] utilizationEnergyOverdrawMaintenance 0
scalar OsgEarthNet.uav[38] utilizationCountMissions 50
scalar OsgEarthNet.uav[38] utilizationCountManeuversMission 1053
scalar OsgEarthNet.uav[38] utilizationCountManeuversMaintenance 100
scalar OsgEarthNet.uav[38] utilizationCountChargeState 50
scalar OsgEarthNet.uav[38] utilizationCountOverdrawnAfterMission 0
scalar OsgEarthNet.uav[38] utilizationCountIdleState 50
scalar OsgEarthNet.uav[38] utilizationFail 0
scalar OsgEarthNet.uav[38] simulationTime 259200
scalar OsgEarthNet.uav[39] utilizationSecMission 14833.492876731
scalar OsgEarthNet.uav[39] utilizationSecMaintenance 11210.140468625
scalar OsgEarthNet.uav[39] utilizationSecCharge 95194.351654644
scalar OsgEarthNet.uav[39] utilizationSecIdle 137962.014
scalar OsgEarthNet.uav[39] utilizationEnergyMission 73768.312919617
scalar OsgEarthNet.uav[39] utilizationEnergyMaintenance 53197.674301147
scalar OsgEarthNet.uav[39] utilizationEnergyCharge 122805.79760742
scalar OsgEarthNet.uav[39] utilizationEnergyOverdrawMission 0
scalar OsgEarthNet.uav[39] utilizationEnergyOverdrawMaintenance 0
scalar OsgEarthNet.uav[39] utilizationCountMissions 28
scalar OsgEarthNet.uav[39] utilizationCountManeuversMission 590
scalar OsgEarthNet.uav[39] utilizationCountManeuversMaintenance 56
scalar OsgEarthNet.uav[39] utilizationCountChargeState 28
scalar OsgEarthNet.uav[39] utilizationCountOverdrawnAfterMission 0
scalar OsgEarthNet.uav[39] utilizationCountIdleState 28
scalar OsgEarthNet.uav[39] utilizationFail 0
scalar OsgEarthNet.uav[39] simulationTime 259200
scalar OsgEarthNet.uav[40] utilizationSecMission 15886.251525803
scalar OsgEarthNet.uav[40] utilizationSecMaintenance 10247.433723983
scalar OsgEarthNet.uav[40] utilizationSecCharge 97304.303750215
scalar OsgEarthNet.uav[40] utilizationSecIdle 135762.01
scalar OsgEarthNet.uav[40] utilizationEnergyMission 76810.0742836
scalar OsgEarthNet.uav[40] utilizationEnergyMaintenance 48864.90083313
scalar OsgEarthNet.uav[40] utilizationEnergyCharge 125839.88623047
scalar OsgEarthNet.uav[40] utilizationEnergyOverdrawMission 0
scalar OsgEarthNet.uav[40] utilizationEnergyOverdrawMaintenance 0
scalar OsgEarthNet.uav[40] utilizationCountMissions 28
scalar OsgEarthNet.uav[40] utilizationCountManeuversMission 534
scalar OsgEarthNet.uav[40] utilizationCountManeuversMaintenance 56
scalar OsgEarthNet.uav[40] utilizationCountChargeState 28
scalar OsgEarthNet.uav[40] utilizationCountOverdrawnAfterMission 0
scalar OsgEarthNet.uav[40] utilizationCountIdleState 28
scalar OsgEarthNet.uav[40] utilizationFail 0
scalar OsgEarthNet.uav[40] simulationTime 259200
scalar OsgEarthNet.uav[41] utilizationSecMission 29937.513884016
scalar OsgEarthNet.uav[41] utilizationSecMaintenance 16358.816937997
scalar OsgEarthNet.uav[41] utilizationSecCharge 176770
scalar OsgEarthNet.uav[41] utilizationSecIdle 36133.668177988
scalar OsgEarthNet.uav[41] utilizationEnergyMission 143871.80611216
scalar OsgEarthNet.uav[41] utilizationEnergyMaintenance 78200.749439239
scalar OsgEarthNet.uav[41] utilizationEnergyCharge 221160.58764648
scalar OsgEarthNet.uav[41] utilizationEnergyOverdrawMission 0
scalar OsgEarthNet.uav[41] utilizationEnergyOverdrawMaintenance 0
scalar OsgEarthNet.uav[41] utilizationCountMissions 54
scalar OsgEarthNet.uav[41] utilizationCountManeuversMission 859
scalar OsgEarthNet.uav[41] utilizationCountManeuversMaintenance 109
scalar OsgEarthNet.uav[41] utilizationCountChargeState 54
scalar OsgEarthNet.uav[41] utilizationCountOverdrawnAfterMission 0
scalar OsgEarthNet.uav[41] utilizationCountIdleState 55
scalar OsgEarthNet.uav[41] utilizationFail 0
scalar OsgEarthNet.uav[41] simulationTime 259200
scalar OsgEarthNet.uav[42] utilizationSecMission 34115.248082385
scalar OsgEarthNet.uav[42] utilizationSecMaintenance 14571.927867323
scalar OsgEarthNet.uav[42] utilizationSecCharge 180960.82305029
scalar OsgEarthNet.uav[42] utilizationSecIdle 29552
scalar OsgEarthNet.uav[42] utilizationEnergyMission 165383.12993931
scalar OsgEarthNet.uav[42] utilizationEnergyMaintenance 67458.945560455
scalar OsgEarthNet.uav[42] utilizationEnergyCharge 234221.13134766
scalar OsgEarthNet.uav[42] utilizationEnergyOverdrawMission 0
scalar OsgEarthNet.uav[42] utilizationEnergyOverdrawMaintenance 0
scalar OsgEarthNet.uav[42] utilizationCountMissions 51
scalar OsgEarthNet.uav[42] utilizationCountManeuversMission 1189
scalar OsgEarthNet.uav[42] utilizationCountManeuversMaintenance 101
scalar OsgEarthNet.uav[42] utilizationCountChargeState 51
scalar OsgEarthNet.uav[42] utilizationCountOverdrawnAfterMission 0
scalar OsgEarthNet.uav[42] utilizationCountIdleState 49
scalar OsgEarthNet.uav[42] utilizationFail 0
scalar OsgEarthNet.uav[42] simulationTime 259200
scalar OsgEarthNet.uav[43] utilizationSecMission 16674.743181892
scalar OsgEarthNet.uav[43] utilizationSecMaintenance 11879.241292351
scalar OsgEarthNet.uav[43] utilizationSecCharge 107428.23934286
scalar OsgEarthNet.uav[43] utilizationSecIdle 123217.7751829
scalar OsgEarthNet.uav[43] utilizationEnergyMission 82166.467456818
scalar OsgEarthNet.uav[43] utilizationEnergyMaintenance 56215.616394043
scalar OsgEarthNet.uav[43] utilizationEnergyCharge 138855.71582031
scalar OsgEarthNet.uav[43] utilizationEnergyOverdrawMission 0
scalar OsgEarthNet.uav[43] utilizationEnergyOverdrawMaintenance 0
scalar OsgEarthNet.uav[43] utilizationCountMissions 31
scalar OsgEarthNet.uav[43] utilizationCountManeuversMission 630
scalar OsgEarthNet.uav[43] utilizationCountManeuversMaintenance 62
scalar OsgEarthNet.uav[43] utilizationCountChargeState 31
scalar OsgEarthNet.uav[43] utilizationCountOverdrawnAfterMission 0
scalar OsgEarthNet.uav[43] utilizationCountIdleState 31
scalar OsgEarthNet.uav[43] utilizationFail 0
scalar OsgEarthNet.uav[43] simulationTime 259200
scalar OsgEarthNet.uav[44] utilizationSecMission 30984.254761759
scalar OsgEarthNet.uav[44] utilizationSecMaintenance 16340.952835199
scalar OsgEarthNet.uav[44] utilizationSecCharge 179932.79140304
scalar OsgEarthNet.uav[44] utilizationSecIdle 31942
scalar OsgEarthNet.uav[44] utilizationEnergyMission 149413.89547729
scalar OsgEarthNet.uav[44] utilizationEnergyMaintenance 77805.016426086
scalar OsgEarthNet.uav[44] utilizationEnergyCharge 226427.53173828
scalar OsgEarthNet.uav[44] utilizationEnergyOverdrawMission 0
scalar OsgEarthNet.uav[44] utilizationEnergyOverdrawMaintenance 0
scalar OsgEarthNet.uav[44] utilizationCountMissions 54
scalar OsgEarthNet.uav[44] utilizationCountManeuversMission 880
scalar OsgEarthNet.uav[44] utilizationCountManeuversMaintenance 107
scalar OsgEarthNet.uav[44] utilizationCountChargeState 54
scalar OsgEarthNet.uav[44] utilizationCountOverdrawnAfterMission 0
scalar OsgEarthNet.uav[44] utilizationCountIdleState 54
scalar OsgEarthNet.uav[44] utilizationFail 0
scalar OsgEarthNet.uav[44] simulationTime 259200
scalar OsgEarthNet.uav[45] utilizationSecMission 35432.249687171
scalar OsgEarthNet.uav[45] utilizationSecMaintenance 13172.66078968
scalar OsgEarthNet.uav[45] utilizationSecCharge 177993.63556443
scalar OsgEarthNet.uav[45] utilizationSecIdle 32601.452958717
scalar OsgEarthNet.uav[45] utilizationEnergyMission 174442.4871254
scalar OsgEarthNet.uav[45] utilizationEnergyMaintenance 60442.246578217
scalar OsgEarthNet.uav[45] utilizationEnergyCharge 232515.97851562
scalar OsgEarthNet.uav[45] utilizationEnergyOverdrawMission 0
scalar OsgEarthNet.uav[45] utilizationEnergyOverdrawMaintenance 0
scalar OsgEarthNet.uav[45] utilizationCountMissions 50
scalar OsgEarthNet.uav[45] utilizationCountManeuversMission 1134
scalar OsgEarthNet.uav[45] utilizationCountManeuversMaintenance 100
scalar OsgEarthNet.uav[45] utilizationCountChargeState 50
scalar OsgEarthNet.uav[45] utilizationCountOverdrawnAfterMission 0
scalar OsgEarthNet.uav[45] utilizationCountIdleState 49
scalar OsgEarthNet.uav[45] utilizationFail 0
scalar OsgEarthNet.uav[45] simulationTime 259200
scalar OsgEarthNet.uav[46] utilizationSecMission 15707.610906043
scalar OsgEarthNet.uav[46] utilizationSecMaintenance 8666.0177196592
scalar OsgEarthNet.uav[46] utilizationSecCharge 90620
scalar OsgEarthNet.uav[46] utilizationSecIdle 144206.3703743
scalar OsgEarthNet.uav[46] utilizationEnergyMission 75288.187397003
scalar OsgEarthNet.uav[46] utilizationEnergyMaintenance 41144.034091949
scalar OsgEarthNet.uav[46] utilizationEnergyCharge 116096.47998047
scalar OsgEarthNet.uav[46] utilizationEnergyOverdrawMission 0
scalar OsgEarthNet.uav[46] utilizationEnergyOverdrawMaintenance 0
scalar OsgEarthNet.uav[46] utilizationCountMissions 26
scalar OsgEarthNet.uav[46] utilizationCountManeuversMission 456
scalar OsgEarthNet.uav[46] utilizationCountManeuversMaintenance 52
scalar OsgEarthNet.uav[46] utilizationCountChargeState 26
scalar OsgEarthNet.uav[46] utilizationCountOverdrawnAfterMission 0
scalar OsgEarthNet.uav[46] utilizationCountIdleState 27
scalar OsgEarthNet.uav[46] utilizationFail 0
scalar OsgEarthNet.uav[46] simulationTime 259200
scalar OsgEarthNet.uav[47] utilizationSecMission 29308.455412125
scalar OsgEarthNet.uav[47] utilizationSecMaintenance 18608.912607766
scalar OsgEarthNet.uav[47] utilizationSecCharge 180905.31489828
scalar OsgEarthNet.uav[47] utilizationSecIdle 30377.316081831
scalar OsgEarthNet.uav[47] utilizationEnergyMission 142860.49154282
scalar OsgEarthNet.uav[47] utilizationEnergyMaintenance 88997.836387634
scalar OsgEarthNet.uav[47] utilizationEnergyCharge 224730.02154541
scalar OsgEarthNet.uav[47] utilizationEnergyOverdrawMission 0
scalar OsgEarthNet.uav[47] utilizationEnergyOverdrawMaintenance 0
scalar OsgEarthNet.uav[47] utilizationCountMissions 57
scalar OsgEarthNet.uav[47] utilizationCountManeuversMission 925
scalar OsgEarthNet.uav[47] utilizationCountManeuversMaintenance 114
scalar OsgEarthNet.uav[47] utilizationCountChargeState 57
scalar OsgEarthNet.uav[47] utilizationCountOverdrawnAfterMission 0
scalar OsgEarthNet.uav[47] utilizationCountIdleState 57
scalar OsgEarthNet.uav[47] utilizationFail 0
scalar OsgEarthNet.uav[47] simulationTime 259200
scalar OsgEarthNet.uav[48] utilizationSecMission 35411.697510712
scalar OsgEarthNet.uav[48] utilizationSecMaintenance 13296.301489288
scalar OsgEarthNet.uav[48] utilizationSecCharge 178070
scalar OsgEarthNet.uav[48] utilizationSecIdle 32422
scalar OsgEarthNet.uav[48] utilizationEnergyMission 170794.8991789
scalar OsgEarthNet.uav[48] utilizationEnergyMaintenance 61115.485160828
scalar OsgEarthNet.uav[48] utilizationEnergyCharge 231664.99072266
scalar OsgEarthNet.uav[48] utilizationEnergyOverdrawMission 0
scalar OsgEarthNet.uav[48] utilizationEnergyOverdrawMaintenance 0
scalar OsgEarthNet.uav[48] utilizationCountMissions 50
scalar OsgEarthNet.uav[48] utilizationCountManeuversMission 1126
scalar OsgEarthNet.uav[48] utilizationCountManeuversMaintenance 101
scalar OsgEarthNet.uav[48] utilizationCountChargeState 50
scalar OsgEarthNet.uav[48] utilizationCountOverdrawnAfterMission 0
scalar OsgEarthNet.uav[48] utilizationCountIdleState 50
scalar OsgEarthNet.uav[48] utilizationFail 0
scalar OsgEarthNet.uav[48] simulationTime 259200
scalar OsgEarthNet.uav[49] utilizationSecMission 15497.134717134
scalar OsgEarthNet.uav[49] utilizationSecMaintenance 9152.6000757812
scalar OsgEarthNet.uav[49] utilizationSecCharge 91640
scalar OsgEarthNet.uav[49] utilizationSecIdle 142910.26420709
scalar OsgEarthNet.uav[49] utilizationEnergyMission 74698.887161255
scalar OsgEarthNet.uav[49] utilizationEnergyMaintenance 43199.093101501
scalar OsgEarthNet.uav[49] utilizationEnergyCharge 118040.18798828
scalar OsgEarthNet.uav[49] utilizationEnergyOverdrawMission 0
scalar OsgEarthNet.uav[49] utilizationEnergyOverdrawMaintenance 0
scalar OsgEarthNet.uav[49] utilizationCountMissions 26
scalar OsgEarthNet.uav[49] utilizationCountManeuversMission 484
scalar OsgEarthNet.uav[49] utilizationCountManeuversMaintenance 52
scalar OsgEarthNet.uav[49] utilizationCountChargeState 26
scalar OsgEarthNet.uav[49] utilizationCountOverdrawnAfterMission 0
scalar OsgEarthNet.uav[49] utilizationCountIdleState 27
scalar OsgEarthNet.uav[49] utilizationFail 0
scalar OsgEarthNet.uav[49] simulationTime 259200
scalar OsgEarthNet.uav[50] utilizationSecMission 16896.509564553
scalar OsgEarthNet.uav[50] utilizationSecMaintenance 11206.603820436
scalar OsgEarthNet.uav[50] utilizationSecCharge 102842.24119309
scalar OsgEarthNet.uav[50] utilizationSecIdle 128254.64442192
scalar OsgEarthNet.uav[50] utilizationEnergyMission 81382.856311798
scalar OsgEarthNet.uav[50] utilizationEnergyMaintenance 53378.277454376
scalar OsgEarthNet.uav[50] utilizationEnergyCharge 132650.69946289
scalar OsgEarthNet.uav[50] utilizationEnergyOverdrawMission 0
scalar OsgEarthNet.uav[50] utilizationEnergyOverdrawMaintenance 0
scalar OsgEarthNet.uav[50] utilizationCountMissions 30
scalar OsgEarthNet.uav[50] utilizationCountManeuversMission 580
scalar OsgEarthNet.uav[50] utilizationCountManeuversMaintenance 60
scalar OsgEarthNet.uav[50] utilizationCountChargeState 30
scalar OsgEarthNet.uav[50] utilizationCountOverdrawnAfterMission 0
scalar OsgEarthNet.uav[50] utilizationCountIdleState 30
scalar OsgEarthNet.uav[50] utilizationFail 0
scalar OsgEarthNet.uav[50] simulationTime 259200
scalar OsgEarthNet.uav[51] utilizationSecMission 29620.330934984
scalar OsgEarthNet.uav[51] utilizationSecMaintenance 16777.660065016
scalar OsgEarthNet.uav[51] utilizationSecCharge 177650
scalar OsgEarthNet.uav[51] utilizationSecIdle 35152.008
scalar OsgEarthNet.uav[51] utilizationEnergyMission 142603.46360779
scalar OsgEarthNet.uav[51] utilizationEnergyMaintenance 79413.675334258
scalar OsgEarthNet.uav[51] utilizationEnergyCharge 220705.63769531
scalar OsgEarthNet.uav[51] utilizationEnergyOverdrawMission 0
scalar OsgEarthNet.uav[51] utilizationEnergyOverdrawMaintenance 0
scalar OsgEarthNet.uav[51] utilizationCountMissions 55
scalar OsgEarthNet.uav[51] utilizationCountManeuversMission 842
scalar OsgEarthNet.uav[51] utilizationCountManeuversMaintenance 111
scalar OsgEarthNet.uav[51] utilizationCountChargeState 55
scalar OsgEarthNet.uav[51] utilizationCountOverdrawnAfterMission 0
scalar OsgEarthNet.uav[51] utilizationCountIdleState 56
scalar OsgEarthNet.uav[51] utilizationFail 0
scalar OsgEarthNet.uav[51] simulationTime 259200
scalar OsgEarthNet.uav[52] utilizationSecMission 34189.013170478
scalar OsgEarthNet.uav[52] utilizationSecMaintenance 14589.8238287
scalar OsgEarthNet.uav[52] utilizationSecCharge 179489.15900082
scalar OsgEarthNet.uav[52] utilizationSecIdle 30932.003
scalar OsgEarthNet.uav[52] utilizationEnergyMission 167798.09063339
scalar OsgEarthNet.uav[52] utilizationEnergyMaintenance 67337.178165436
scalar OsgEarthNet.uav[52] utilizationEnergyCharge 234169.27587891
scalar OsgEarthNet.uav[52] utilizationEnergyOverdrawMission 0
scalar OsgEarthNet.uav[52] utilizationEnergyOverdrawMaintenance 0
scalar OsgEarthNet.uav[52] utilizationCountMissions 51
scalar OsgEarthNet.uav[52] utilizationCountManeuversMission 1210
scalar OsgEarthNet.uav[52] utilizationCountManeuversMaintenance 102
scalar OsgEarthNet.uav[52] utilizationCountChargeState 51
scalar OsgEarthNet.uav[52] utilizationCountOverdrawnAfterMission 0
scalar OsgEarthNet.uav[52] utilizationCountIdleState 50
scalar OsgEarthNet.uav[52] utilizationFail 0
scalar OsgEarthNet.uav[52] simulationTime 259200
scalar OsgEarthNet.uav[53] utilizationSecMission 16485.626373223
scalar OsgEarthNet.uav[53] utilizationSecMaintenance 11221.808050457
scalar OsgEarthNet.uav[53] utilizationSecCharge 104700
scalar OsgEarthNet.uav[53] utilizationSecIdle 126792.56457632
scalar OsgEarthNet.uav[53] utilizationEnergyMission 79800.851490021
scalar OsgEarthNet.uav[53] utilizationEnergyMaintenance 52940.066688537
scalar OsgEarthNet.uav[53] utilizationEnergyCharge 134097.72216797
scalar OsgEarthNet.uav[53] utilizationEnergyOverdrawMission 0
scalar OsgEarthNet.uav[53] utilizationEnergyOverdrawMaintenance 0
scalar OsgEarthNet.uav[53] utilizationCountMissions 30
scalar OsgEarthNet.uav[53] utilizationCountManeuversMission 590
scalar OsgEarthNet.uav[53] utilizationCountManeuversMaintenance 60
scalar OsgEarthNet.uav[53] utilizationCountChargeState 30
scalar OsgEarthNet.uav[53] utilizationCountOverdrawnAfterMission 0
scalar OsgEarthNet.uav[53] utilizationCountIdleState 31
scalar OsgEarthNet.uav[53] utilizationFail 0
scalar OsgEarthNet.uav[53] simulationTime 259200
scalar OsgEarthNet.uav[54] utilizationSecMission 30001.736591004
scalar OsgEarthNet.uav[54] utilizationSecMaintenance 16647.982622518
scalar OsgEarthNet.uav[54] utilizationSecCharge 177368.27478648
scalar OsgEarthNet.uav[54] utilizationSecIdle 35182.005
scalar OsgEarthNet.uav[54] utilizationEnergyMission 144173.98451614
scalar OsgEarthNet.uav[54] utilizationEnergyMaintenance 79294.463481903
scalar OsgEarthNet.uav[54] utilizationEnergyCharge 220314.44482422
scalar OsgEarthNet.uav[54] utilizationEnergyOverdrawMission 0
scalar OsgEarthNet.uav[54] utilizationEnergyOverdrawMaintenance 0
scalar OsgEarthNet.uav[54] utilizationCountMissions 56
scalar OsgEarthNet.uav[54] utilizationCountManeuversMission 810
scalar OsgEarthNet.uav[54] utilizationCountManeuversMaintenance 112
scalar OsgEarthNet.uav[54] utilizationCountChargeState 56
scalar OsgEarthNet.uav[54] utilizationCountOverdrawnAfterMission 0
scalar OsgEarthNet.uav[54] utilizationCountIdleState 56
scalar OsgEarthNet.uav[54] utilizationFail 0
scalar OsgEarthNet.uav[54] simulationTime 259200
scalar OsgEarthNet.uav[55] utilizationSecMission 34686.970903374
scalar OsgEarthNet.uav[55] utilizationSecMaintenance 14328.274985756
scalar OsgEarthNet.uav[55] utilizationSecCharge 176489.29745747
scalar OsgEarthNet.uav[55] utilizationSecIdle 33695.455653403
scalar OsgEarthNet.uav[55] utilizationEnergyMission 168673.05091476
scalar OsgEarthNet.uav[55] utilizationEnergyMaintenance 65475.019302368
scalar OsgEarthNet.uav[55] utilizationEnergyCharge 228272.1920166
scalar OsgEarthNet.uav[55] utilizationEnergyOverdrawMission 0
scalar OsgEarthNet.uav[55] utilizationEnergyOverdrawMaintenance 0
scalar OsgEarthNet.uav[55] utilizationCountMissions 51
scalar OsgEarthNet.uav[55] utilizationCountManeuversMission 1217
scalar OsgEarthNet.uav[55] utilizationCountManeuversMaintenance 102
scalar OsgEarthNet.uav[55] utilizationCountChargeState 51
scalar OsgEarthNet.uav[55] utilizationCountOverdrawnAfterMission 0
scalar OsgEarthNet.uav[55] utilizationCountIdleState 50
scalar OsgEarthNet.uav[55] utilizationFail 0
scalar OsgEarthNet.uav[55] simulationTime 259200
scalar OsgEarthNet.uav[56] utilizationSecMission 17798.385022294
scalar OsgEarthNet.uav[56] utilizationSecMaintenance 10433.835949753
scalar OsgEarthNet.uav[56] utilizationSecCharge 105120
scalar OsgEarthNet.uav[56] utilizationSecIdle 125847.77802795
scalar OsgEarthNet.uav[56] utilizationEnergyMission 86235.330181122
scalar OsgEarthNet.uav[56] utilizationEnergyMaintenance 49878.116706848
scalar OsgEarthNet.uav[56] utilizationEnergyCharge 135256.32568359
scalar OsgEarthNet.uav[56] utilizationEnergyOverdrawMission 0
scalar OsgEarthNet.uav[56] utilizationEnergyOverdrawMaintenance 0
scalar OsgEarthNet.uav[56] utilizationCountMissions 30
scalar OsgEarthNet.uav[56] utilizationCountManeuversMission 547
scalar OsgEarthNet.uav[56] utilizationCountManeuversMaintenance 60
scalar OsgEarthNet.uav[56] utilizationCountChargeState 30
scalar OsgEarthNet.uav[56] utilizationCountOverdrawnAfterMission 0
scalar OsgEarthNet.uav[56] utilizationCountIdleState 31
scalar OsgEarthNet.uav[56] utilizationFail 0
scalar OsgEarthNet.uav[56] simulationTime 259200
scalar OsgEarthNet.uav[57] utilizationSecMission 29880.930363063
scalar OsgEarthNet.uav[57] utilizationSecMaintenance 16653.303809079
scalar OsgEarthNet.uav[57] utilizationSecCharge 176029.39245756
scalar OsgEarthNet.uav[57] utilizationSecIdle 36636.372370302
scalar OsgEarthNet.uav[57] utilizationEnergyMission 144271.66439438
scalar OsgEarthNet.uav[57] utilizationEnergyMaintenance 78309.606842041
scalar OsgEarthNet.uav[57] utilizationEnergyCharge 219424.72399902
scalar OsgEarthNet.uav[57] utilizationEnergyOverdrawMission 0
scalar OsgEarthNet.uav[57] utilizationEnergyOverdrawMaintenance 0
scalar OsgEarthNet.uav[57] utilizationCountMissions 55
scalar OsgEarthNet.uav[57] utilizationCountManeuversMission 841
scalar OsgEarthNet.uav[57] utilizationCountManeuversMaintenance 110
scalar OsgEarthNet.uav[57] utilizationCountChargeState 55
scalar OsgEarthNet.uav[57] utilizationCountOverdrawnAfterMission 0
scalar OsgEarthNet.uav[57] utilizationCountIdleState 55
scalar OsgEarthNet.uav[57] utilizationFail 0
scalar OsgEarthNet.uav[57] simulationTime 259200
scalar OsgEarthNet.uav[58] utilizationSecMission 33707.005763005
scalar OsgEarthNet.uav[58] utilizationSecMaintenance 15630.991236995
scalar OsgEarthNet.uav[58] utilizationSecCharge 180030
scalar OsgEarthNet.uav[58] utilizationSecIdle 29832.002
scalar OsgEarthNet.uav[58] utilizationEnergyMission 164734.29296856
scalar OsgEarthNet.uav[58] utilizationEnergyMaintenance 72300.528476715
scalar OsgEarthNet.uav[58] utilizationEnergyCharge 233241.64648438
scalar OsgEarthNet.uav[58] utilizationEnergyOverdrawMission 0
scalar OsgEarthNet.uav[58] utilizationEnergyOverdrawMaintenance 0
scalar OsgEarthNet.uav[58] utilizationCountMissions 51
scalar OsgEarthNet.uav[58] utilizationCountManeuversMission 1077
scalar OsgEarthNet.uav[58] utilizationCountManeuversMaintenance 103
scalar OsgEarthNet.uav[58] utilizationCountChargeState 51
scalar OsgEarthNet.uav[58] utilizationCountOverdrawnAfterMission 0
scalar OsgEarthNet.uav[58] utilizationCountIdleState 51
scalar OsgEarthNet.uav[58] utilizationFail 0
scalar OsgEarthNet.uav[58] simulationTime 259200
scalar OsgEarthNet.uav[59] utilizationSecMission 16747.501830963
scalar OsgEarthNet.uav[59] utilizationSecMaintenance 9651.5753685871
scalar OsgEarthNet.uav[59] utilizationSecCharge 97510
scalar OsgEarthNet.uav[59] utilizationSecIdle 135290.92180045
scalar OsgEarthNet.uav[59] utilizationEnergyMission 80700.80802536
scalar OsgEarthNet.uav[59] utilizationEnergyMaintenance 45924.125167847
scalar OsgEarthNet.uav[59] utilizationEnergyCharge 125091.94970703
scalar OsgEarthNet.uav[59] utilizationEnergyOverdrawMission 0
scalar OsgEarthNet.uav[59] utilizationEnergyOverdrawMaintenance 0
scalar OsgEarthNet.uav[59] utilizationCountMissions 28
scalar OsgEarthNet.uav[59] utilizationCountManeuversMission 525
scalar OsgEarthNet.uav[59] utilizationCountManeuversMaintenance 56
scalar OsgEarthNet.uav[59] utilizationCountChargeState 28
scalar OsgEarthNet.uav[59] utilizationCountOverdrawnAfterMission 0
scalar OsgEarthNet.uav[59] utilizationCountIdleState 29
scalar OsgEarthNet.uav[59] utilizationFail 0
scalar OsgEarthNet.uav[59] simulationTime 259200
scalar OsgEarthNet.uav[60] utilizationSecMission 17175.884411973
scalar OsgEarthNet.uav[60] utilizationSecMaintenance 11918.249743456
scalar OsgEarthNet.uav[60] utilizationSecCharge 109150
scalar OsgEarthNet.uav[60] utilizationSecIdle 120955.86484457
scalar OsgEarthNet.uav[60] utilizationEnergyMission 84728.599304199
scalar OsgEarthNet.uav[60] utilizationEnergyMaintenance 57329.933116913
scalar OsgEarthNet.uav[60] utilizationEnergyCharge 140863.51074219
scalar OsgEarthNet.uav[60] utilizationEnergyOverdrawMission 0
scalar OsgEarthNet.uav[60] utilizationEnergyOverdrawMaintenance 0
scalar OsgEarthNet.uav[60] utilizationCountMissions 31
scalar OsgEarthNet.uav[60] utilizationCountManeuversMission 620
scalar OsgEarthNet.uav[60] utilizationCountManeuversMaintenance 62
scalar OsgEarthNet.uav[60] utilizationCountChargeState 31
scalar OsgEarthNet.uav[60] utilizationCountOverdrawnAfterMission 0
scalar OsgEarthNet.uav[60] utilizationCountIdleState 32
scalar OsgEarthNet.uav[60] utilizationFail 0
scalar OsgEarthNet.uav[60] simulationTime 259200
scalar OsgEarthNet.uav[61] utilizationSecMission 32110.525236836
scalar OsgEarthNet.uav[61] utilizationSecMaintenance 16050.400359851
scalar OsgEarthNet.uav[61] utilizationSecCharge 178207.07240331
scalar OsgEarthNet.uav[61] utilizationSecIdle 32832.001
scalar OsgEarthNet.uav[61] utilizationEnergyMission 156045.88101196
scalar OsgEarthNet.uav[61] utilizationEnergyMaintenance 76228.615394592
scalar OsgEarthNet.uav[61] utilizationEnergyCharge 225547.73669434
scalar OsgEarthNet.uav[61] utilizationEnergyOverdrawMission 0
scalar OsgEarthNet.uav[61] utilizationEnergyOverdrawMaintenance 0
scalar OsgEarthNet.uav[61] utilizationCountMissions 54
scalar OsgEarthNet.uav[61] utilizationCountManeuversMission 890
scalar OsgEarthNet.uav[61] utilizationCountManeuversMaintenance 108
scalar OsgEarthNet.uav[61] utilizationCountChargeState 54
scalar OsgEarthNet.uav[61] utilizationCountOverdrawnAfterMission 0
scalar OsgEarthNet.uav[61] utilizationCountIdleState 54
scalar OsgEarthNet.uav[61] utilizationFail 0
scalar OsgEarthNet.uav[61] simulationTime 259200
scalar OsgEarthNet.uav[62] utilizationSecMission 34998.619724827
scalar OsgEarthNet.uav[62] utilizationSecMaintenance 14156.109050968
scalar OsgEarthNet.uav[62] utilizationSecCharge 178303.26522421
scalar OsgEarthNet.uav[62] utilizationSecIdle 31742.005
scalar OsgEarthNet.uav[62] utilizationEnergyMission 170244.34545517
scalar OsgEarthNet.uav[62] utilizationEnergyMaintenance 65071.573410034
scalar OsgEarthNet.uav[62] utilizationEnergyCharge 231311.99215698
scalar OsgEarthNet.uav[62] utilizationEnergyOverdrawMission 0
scalar OsgEarthNet.uav[62] utilizationEnergyOverdrawMaintenance 0
scalar OsgEarthNet.uav[62] utilizationCountMissions 51
scalar OsgEarthNet.uav[62] utilizationCountManeuversMission 1114
scalar OsgEarthNet.uav[62] utilizationCountManeuversMaintenance 102
scalar OsgEarthNet.uav[62] utilizationCountChargeState 51
scalar OsgEarthNet.uav[62] utilizationCountOverdrawnAfterMission 0
scalar OsgEarthNet.uav[62] utilizationCountIdleState 50
scalar OsgEarthNet.uav[62] utilizationFail 0
scalar OsgEarthNet.uav[62] simulationTime 259200
scalar OsgEarthNet.uav[63] utilizationSecMission 16876.618639633
scalar OsgEarthNet.uav[63] utilizationSecMaintenance 11095.878304665
scalar OsgEarthNet.uav[63] utilizationSecCharge 105820
scalar OsgEarthNet.uav[63] utilizationSecIdle 125407.5020557
scalar OsgEarthNet.uav[63] utilizationEnergyMission 82812.637828827
scalar OsgEarthNet.uav[63] utilizationEnergyMaintenance 52747.489814758
scalar OsgEarthNet.uav[63] utilizationEnergyCharge 136200.05615234
scalar OsgEarthNet.uav[63] utilizationEnergyOverdrawMission 0
scalar OsgEarthNet.uav[63] utilizationEnergyOverdrawMaintenance 0
scalar OsgEarthNet.uav[63] utilizationCountMissions 30
scalar OsgEarthNet.uav[63] utilizationCountManeuversMission 562
scalar OsgEarthNet.uav[63] utilizationCountManeuversMaintenance 60
scalar OsgEarthNet.uav[63] utilizationCountChargeState 30
scalar OsgEarthNet.uav[63] utilizationCountOverdrawnAfterMission 0
scalar OsgEarthNet.uav[63] utilizationCountIdleState 31
scalar OsgEarthNet.uav[63] utilizationFail 0
scalar OsgEarthNet.uav[63] simulationTime 259200
scalar OsgEarthNet.uav[64] utilizationSecMission 29555.534985642
scalar OsgEarthNet.uav[64] utilizationSecMaintenance 16532.16000902
scalar OsgEarthNet.uav[64] utilizationSecCharge 177470.29500534
scalar OsgEarthNet.uav[64] utilizationSecIdle 35642.009
scalar OsgEarthNet.uav[64] utilizationEnergyMission 143339.7274704
scalar OsgEarthNet.uav[64] utilizationEnergyMaintenance 79099.837463379
scalar OsgEarthNet.uav[64] utilizationEnergyCharge 221151.07739258
scalar OsgEarthNet.uav[64] utilizationEnergyOverdrawMission 0
scalar OsgEarthNet.uav[64] utilizationEnergyOverdrawMaintenance 0
scalar OsgEarthNet.uav[64] utilizationCountMissions 55
scalar OsgEarthNet.uav[64] utilizationCountManeuversMission 796
scalar OsgEarthNet.uav[64] utilizationCountManeuversMaintenance 110
scalar OsgEarthNet.uav[64] utilizationCountChargeState 55
scalar OsgEarthNet.uav[64] utilizationCountOverdrawnAfterMission 0
scalar OsgEarthNet.uav[64] utilizationCountIdleState 55
scalar OsgEarthNet.uav[64] utilizationFail 0
scalar OsgEarthNet.uav[64] simulationTime 259200
scalar OsgEarthNet.uav[65] utilizationSecMission 34806.413598133
[...]
scalar OsgEarthNet.uav[71] utilizationCountMissions 54
scalar OsgEarthNet.uav[71] utilizationCountManeuversMission 886
scalar OsgEarthNet.uav[71] utilizationCountManeuversMaintenance 109
scalar OsgEarthNet.uav[71] utilizationCountChargeState 54
scalar OsgEarthNet.uav[71] utilizationCountOverdrawnAfterMission 0
scalar OsgEarthNet.uav[71] utilizationCountIdleState 55
scalar OsgEarthNet.uav[71] utilizationFail 0
scalar OsgEarthNet.uav[71] simulationTime 259200
scalar OsgEarthNet.uav[72] utilizationSecMission 34169.982606301
scalar OsgEarthNet.uav[72] utilizationSecMaintenance 14687.795551623
scalar OsgEarthNet.uav[72] utilizationSecCharge 177700.21684208
scalar OsgEarthNet.uav[72] utilizationSecIdle 32642.004
scalar OsgEarthNet.uav[72] utilizationEnergyMission 166409.30885696
scalar OsgEarthNet.uav[72] utilizationEnergyMaintenance 67545.037704468
scalar OsgEarthNet.uav[72] utilizationEnergyCharge 229934.50857544
scalar OsgEarthNet.uav[72] utilizationEnergyOverdrawMission 0
scalar OsgEarthNet.uav[72] utilizationEnergyOverdrawMaintenance 0
scalar OsgEarthNet.uav[72] utilizationCountMissions 51
scalar OsgEarthNet.uav[72] utilizationCountManeuversMission 1071
scalar OsgEarthNet.uav[72] utilizationCountManeuversMaintenance 102
scalar OsgEarthNet.uav[72] utilizationCountChargeState 51
scalar OsgEarthNet.uav[72] utilizationCountOverdrawnAfterMission 0
scalar OsgEarthNet.uav[72] utilizationCountIdleState 50
scalar OsgEarthNet.uav[72] utilizationFail 0
scalar OsgEarthNet.uav[72] simulationTime 259200
scalar OsgEarthNet.uav[73] utilizationSecMission 33915.615371843
scalar OsgEarthNet.uav[73] utilizationSecMaintenance 14860.414823331
scalar OsgEarthNet.uav[73] utilizationSecCharge 178246.91480242
scalar OsgEarthNet.uav[73] utilizationSecIdle 32177.054002409
scalar OsgEarthNet.uav[73] utilizationEnergyMission 165486.96743393
scalar OsgEarthNet.uav[73] utilizationEnergyMaintenance 68992.697311401
scalar OsgEarthNet.uav[73] utilizationEnergyCharge 230638.9519043
scalar OsgEarthNet.uav[73] utilizationEnergyOverdrawMission 0
scalar OsgEarthNet.uav[73] utilizationEnergyOverdrawMaintenance 0
scalar OsgEarthNet.uav[73] utilizationCountMissions 51
scalar OsgEarthNet.uav[73] utilizationCountManeuversMission 1086
scalar OsgEarthNet.uav[73] utilizationCountManeuversMaintenance 102
scalar OsgEarthNet.uav[73] utilizationCountChargeState 51
scalar OsgEarthNet.uav[73] utilizationCountOverdrawnAfterMission 0
scalar OsgEarthNet.uav[73] utilizationCountIdleState 50
scalar OsgEarthNet.uav[73] utilizationFail 0
scalar OsgEarthNet.uav[73] simulationTime 259200
scalar OsgEarthNet.uav[74] utilizationSecMission 30783.105843794
scalar OsgEarthNet.uav[74] utilizationSecMaintenance 16971.937163564
scalar OsgEarthNet.uav[74] utilizationSecCharge 179512.95299264
scalar OsgEarthNet.uav[74] utilizationSecIdle 31932.003
scalar OsgEarthNet.uav[74] utilizationEnergyMission 146928.66081619
scalar OsgEarthNet.uav[74] utilizationEnergyMaintenance 80043.145820618
scalar OsgEarthNet.uav[74] utilizationEnergyCharge 226361.67993164
scalar OsgEarthNet.uav[74] utilizationEnergyOverdrawMission 0
scalar OsgEarthNet.uav[74] utilizationEnergyOverdrawMaintenance 0
scalar OsgEarthNet.uav[74] utilizationCountMissions 54
scalar OsgEarthNet.uav[74] utilizationCountManeuversMission 915
scalar OsgEarthNet.uav[74] utilizationCountManeuversMaintenance 108
scalar OsgEarthNet.uav[74] utilizationCountChargeState 54
scalar OsgEarthNet.uav[74] utilizationCountOverdrawnAfterMission 0
scalar OsgEarthNet.uav[74] utilizationCountIdleState 54
scalar OsgEarthNet.uav[74] utilizationFail 0
scalar OsgEarthNet.uav[74] simulationTime 259200
scalar OsgEarthNet.uav[75] utilizationSecMission 34364.232299205
scalar OsgEarthNet.uav[75] utilizationSecMaintenance 14619.182892893
scalar OsgEarthNet.uav[75] utilizationSecCharge 180900
scalar OsgEarthNet.uav[75] utilizationSecIdle 29316.583807902
scalar OsgEarthNet.uav[75] utilizationEnergyMission 167260.26332412
scalar OsgEarthNet.uav[75] utilizationEnergyMaintenance 66502.896091461
scalar OsgEarthNet.uav[75] utilizationEnergyCharge 234498.83251953
scalar OsgEarthNet.uav[75] utilizationEnergyOverdrawMission 0
scalar OsgEarthNet.uav[75] utilizationEnergyOverdrawMaintenance 0
scalar OsgEarthNet.uav[75] utilizationCountMissions 51
scalar OsgEarthNet.uav[75] utilizationCountManeuversMission 1181
scalar OsgEarthNet.uav[75] utilizationCountManeuversMaintenance 101
scalar OsgEarthNet.uav[75] utilizationCountChargeState 51
scalar OsgEarthNet.uav[75] utilizationCountOverdrawnAfterMission 0
scalar OsgEarthNet.uav[75] utilizationCountIdleState 51
scalar OsgEarthNet.uav[75] utilizationFail 0
scalar OsgEarthNet.uav[75] simulationTime 259200
scalar OsgEarthNet.uav[76] utilizationSecMission 20279.119249954
scalar OsgEarthNet.uav[76] utilizationSecMaintenance 11703.919821815
scalar OsgEarthNet.uav[76] utilizationSecCharge 118700
scalar OsgEarthNet.uav[76] utilizationSecIdle 108516.95992823
scalar OsgEarthNet.uav[76] utilizationEnergyMission 97561.15089035
scalar OsgEarthNet.uav[76] utilizationEnergyMaintenance 55680.441898346
scalar OsgEarthNet.uav[76] utilizationEnergyCharge 152514.59716797
scalar OsgEarthNet.uav[76] utilizationEnergyOverdrawMission 0
scalar OsgEarthNet.uav[76] utilizationEnergyOverdrawMaintenance 0
scalar OsgEarthNet.uav[76] utilizationCountMissions 34
scalar OsgEarthNet.uav[76] utilizationCountManeuversMission 628
scalar OsgEarthNet.uav[76] utilizationCountManeuversMaintenance 68
scalar OsgEarthNet.uav[76] utilizationCountChargeState 34
scalar OsgEarthNet.uav[76] utilizationCountOverdrawnAfterMission 0
scalar OsgEarthNet.uav[76] utilizationCountIdleState 35
scalar OsgEarthNet.uav[76] utilizationFail 0
scalar OsgEarthNet.uav[76] simulationTime 259200
scalar OsgEarthNet.uav[77] utilizationSecMission 30472.155788367
scalar OsgEarthNet.uav[77] utilizationSecMaintenance 16235.833211633
scalar OsgEarthNet.uav[77] utilizationSecCharge 175230
scalar OsgEarthNet.uav[77] utilizationSecIdle 37262.01
scalar OsgEarthNet.uav[77] utilizationEnergyMission 146085.60101588
scalar OsgEarthNet.uav[77] utilizationEnergyMaintenance 76788.552394867
scalar OsgEarthNet.uav[77] utilizationEnergyCharge 220143.26611328
scalar OsgEarthNet.uav[77] utilizationEnergyOverdrawMission 0
scalar OsgEarthNet.uav[77] utilizationEnergyOverdrawMaintenance 0
scalar OsgEarthNet.uav[77] utilizationCountMissions 53
scalar OsgEarthNet.uav[77] utilizationCountManeuversMission 882
scalar OsgEarthNet.uav[77] utilizationCountManeuversMaintenance 107
scalar OsgEarthNet.uav[77] utilizationCountChargeState 53
scalar OsgEarthNet.uav[77] utilizationCountOverdrawnAfterMission 0
scalar OsgEarthNet.uav[77] utilizationCountIdleState 53
scalar OsgEarthNet.uav[77] utilizationFail 0
scalar OsgEarthNet.uav[77] simulationTime 259200
scalar OsgEarthNet.uav[78] utilizationSecMission 34627.023704084
scalar OsgEarthNet.uav[78] utilizationSecMaintenance 13602.800115417
scalar OsgEarthNet.uav[78] utilizationSecCharge 177018.1691805
scalar OsgEarthNet.uav[78] utilizationSecIdle 33952.006
scalar OsgEarthNet.uav[78] utilizationEnergyMission 169063.60635757
scalar OsgEarthNet.uav[78] utilizationEnergyMaintenance 62832.202171326
scalar OsgEarthNet.uav[78] utilizationEnergyCharge 229651.16210938
scalar OsgEarthNet.uav[78] utilizationEnergyOverdrawMission 0
scalar OsgEarthNet.uav[78] utilizationEnergyOverdrawMaintenance 0
scalar OsgEarthNet.uav[78] utilizationCountMissions 50
scalar OsgEarthNet.uav[78] utilizationCountManeuversMission 1140
scalar OsgEarthNet.uav[78] utilizationCountManeuversMaintenance 100
scalar OsgEarthNet.uav[78] utilizationCountChargeState 50
scalar OsgEarthNet.uav[78] utilizationCountOverdrawnAfterMission 0
scalar OsgEarthNet.uav[78] utilizationCountIdleState 49
scalar OsgEarthNet.uav[78] utilizationFail 0
scalar OsgEarthNet.uav[78] simulationTime 259200
scalar OsgEarthNet.uav[79] utilizationSecMission 17259.010174875
scalar OsgEarthNet.uav[79] utilizationSecMaintenance 9372.0943013097
scalar OsgEarthNet.uav[79] utilizationSecCharge 96816.890523816
scalar OsgEarthNet.uav[79] utilizationSecIdle 135752.004
scalar OsgEarthNet.uav[79] utilizationEnergyMission 82056.051391602
scalar OsgEarthNet.uav[79] utilizationEnergyMaintenance 44713.248306274
scalar OsgEarthNet.uav[79] utilizationEnergyCharge 125311.84082031
scalar OsgEarthNet.uav[79] utilizationEnergyOverdrawMission 0
scalar OsgEarthNet.uav[79] utilizationEnergyOverdrawMaintenance 0
scalar OsgEarthNet.uav[79] utilizationCountMissions 28
scalar OsgEarthNet.uav[79] utilizationCountManeuversMission 494
scalar OsgEarthNet.uav[79] utilizationCountManeuversMaintenance 56
scalar OsgEarthNet.uav[79] utilizationCountChargeState 28
scalar OsgEarthNet.uav[79] utilizationCountOverdrawnAfterMission 0
scalar OsgEarthNet.uav[79] utilizationCountIdleState 28
scalar OsgEarthNet.uav[79] utilizationFail 0
scalar OsgEarthNet.uav[79] simulationTime 259200
scalar OsgEarthNet.uav[80] utilizationSecMission 19030.002441285
scalar OsgEarthNet.uav[80] utilizationSecMaintenance 10151.623126221
scalar OsgEarthNet.uav[80] utilizationSecCharge 109710
scalar OsgEarthNet.uav[80] utilizationSecIdle 120308.37343249
scalar OsgEarthNet.uav[80] utilizationEnergyMission 91079.327457428
scalar OsgEarthNet.uav[80] utilizationEnergyMaintenance 48218.617420196
scalar OsgEarthNet.uav[80] utilizationEnergyCharge 141306.10205078
scalar OsgEarthNet.uav[80] utilizationEnergyOverdrawMission 0
scalar OsgEarthNet.uav[80] utilizationEnergyOverdrawMaintenance 0
scalar OsgEarthNet.uav[80] utilizationCountMissions 31
scalar OsgEarthNet.uav[80] utilizationCountManeuversMission 535
scalar OsgEarthNet.uav[80] utilizationCountManeuversMaintenance 62
scalar OsgEarthNet.uav[80] utilizationCountChargeState 31
scalar OsgEarthNet.uav[80] utilizationCountOverdrawnAfterMission 0
scalar OsgEarthNet.uav[80] utilizationCountIdleState 32
scalar OsgEarthNet.uav[80] utilizationFail 0
scalar OsgEarthNet.uav[80] simulationTime 259200
scalar OsgEarthNet.uav[81] utilizationSecMission 29111.657837105
scalar OsgEarthNet.uav[81] utilizationSecMaintenance 17888.778705308
scalar OsgEarthNet.uav[81] utilizationSecCharge 178975.80047008
scalar OsgEarthNet.uav[81] utilizationSecIdle 33223.761987508
scalar OsgEarthNet.uav[81] utilizationEnergyMission 142581.25024414
scalar OsgEarthNet.uav[81] utilizationEnergyMaintenance 84800.572498322
scalar OsgEarthNet.uav[81] utilizationEnergyCharge 225920.42700195
scalar OsgEarthNet.uav[81] utilizationEnergyOverdrawMission 0
scalar OsgEarthNet.uav[81] utilizationEnergyOverdrawMaintenance 0
scalar OsgEarthNet.uav[81] utilizationCountMissions 54
scalar OsgEarthNet.uav[81] utilizationCountManeuversMission 977
scalar OsgEarthNet.uav[81] utilizationCountManeuversMaintenance 108
scalar OsgEarthNet.uav[81] utilizationCountChargeState 54
scalar OsgEarthNet.uav[81] utilizationCountOverdrawnAfterMission 0
scalar OsgEarthNet.uav[81] utilizationCountIdleState 54
scalar OsgEarthNet.uav[81] utilizationFail 0
scalar OsgEarthNet.uav[81] simulationTime 259200
scalar OsgEarthNet.uav[82] utilizationSecMission 33436.326335468
scalar OsgEarthNet.uav[82] utilizationSecMaintenance 16009.333863174
scalar OsgEarthNet.uav[82] utilizationSecCharge 182822.33880136
scalar OsgEarthNet.uav[82] utilizationSecIdle 26932
scalar OsgEarthNet.uav[82] utilizationEnergyMission 164825.0811348
scalar OsgEarthNet.uav[82] utilizationEnergyMaintenance 72993.972640991
scalar OsgEarthNet.uav[82] utilizationEnergyCharge 237908.17993164
scalar OsgEarthNet.uav[82] utilizationEnergyOverdrawMission 0
scalar OsgEarthNet.uav[82] utilizationEnergyOverdrawMaintenance 0
scalar OsgEarthNet.uav[82] utilizationCountMissions 52
scalar OsgEarthNet.uav[82] utilizationCountManeuversMission 1251
scalar OsgEarthNet.uav[82] utilizationCountManeuversMaintenance 104
scalar OsgEarthNet.uav[82] utilizationCountChargeState 52
scalar OsgEarthNet.uav[82] utilizationCountOverdrawnAfterMission 0
scalar OsgEarthNet.uav[82] utilizationCountIdleState 51
scalar OsgEarthNet.uav[82] utilizationFail 0
scalar OsgEarthNet.uav[82] simulationTime 259200
scalar OsgEarthNet.uav[83] utilizationSecMission 18999.635327455
scalar OsgEarthNet.uav[83] utilizationSecMaintenance 10470.175285688
scalar OsgEarthNet.uav[83] utilizationSecCharge 109460
scalar OsgEarthNet.uav[83] utilizationSecIdle 120270.18838686
scalar OsgEarthNet.uav[83] utilizationEnergyMission 92652.518630981
scalar OsgEarthNet.uav[83] utilizationEnergyMaintenance 49837.988830566
scalar OsgEarthNet.uav[83] utilizationEnergyCharge 141032.52636719
scalar OsgEarthNet.uav[83] utilizationEnergyOverdrawMission 0
scalar OsgEarthNet.uav[83] utilizationEnergyOverdrawMaintenance 0
scalar OsgEarthNet.uav[83] utilizationCountMissions 31
scalar OsgEarthNet.uav[83] utilizationCountManeuversMission 555
scalar OsgEarthNet.uav[83] utilizationCountManeuversMaintenance 62
scalar OsgEarthNet.uav[83] utilizationCountChargeState 31
scalar OsgEarthNet.uav[83] utilizationCountOverdrawnAfterMission 0
scalar OsgEarthNet.uav[83] utilizationCountIdleState 32
scalar OsgEarthNet.uav[83] utilizationFail 0
scalar OsgEarthNet.uav[83] simulationTime 259200
scalar OsgEarthNet.uav[84] utilizationSecMission 29463.594017538
scalar OsgEarthNet.uav[84] utilizationSecMaintenance 17196.12146271
scalar OsgEarthNet.uav[84] utilizationSecCharge 177028.22171978
scalar OsgEarthNet.uav[84] utilizationSecIdle 35512.061799973
scalar OsgEarthNet.uav[84] utilizationEnergyMission 142923.63402557
scalar OsgEarthNet.uav[84] utilizationEnergyMaintenance 81439.415607452
scalar OsgEarthNet.uav[84] utilizationEnergyCharge 222903.22875977
scalar OsgEarthNet.uav[84] utilizationEnergyOverdrawMission 0
scalar OsgEarthNet.uav[84] utilizationEnergyOverdrawMaintenance 0
scalar OsgEarthNet.uav[84] utilizationCountMissions 54
scalar OsgEarthNet.uav[84] utilizationCountManeuversMission 993
scalar OsgEarthNet.uav[84] utilizationCountManeuversMaintenance 108
scalar OsgEarthNet.uav[84] utilizationCountChargeState 54
scalar OsgEarthNet.uav[84] utilizationCountOverdrawnAfterMission 0
scalar OsgEarthNet.uav[84] utilizationCountIdleState 54
scalar OsgEarthNet.uav[84] utilizationFail 0
scalar OsgEarthNet.uav[84] simulationTime 259200
scalar OsgEarthNet.uav[85] utilizationSecMission 35608.407264359
scalar OsgEarthNet.uav[85] utilizationSecMaintenance 13346.958686429
scalar OsgEarthNet.uav[85] utilizationSecCharge 178952.63204921
scalar OsgEarthNet.uav[85] utilizationSecIdle 31292.001
scalar OsgEarthNet.uav[85] utilizationEnergyMission 172468.23540115
scalar OsgEarthNet.uav[85] utilizationEnergyMaintenance 61566.425285339
scalar OsgEarthNet.uav[85] utilizationEnergyCharge 233123.13867188
scalar OsgEarthNet.uav[85] utilizationEnergyOverdrawMission 0
scalar OsgEarthNet.uav[85] utilizationEnergyOverdrawMaintenance 0
scalar OsgEarthNet.uav[85] utilizationCountMissions 50
scalar OsgEarthNet.uav[85] utilizationCountManeuversMission 995
scalar OsgEarthNet.uav[85] utilizationCountManeuversMaintenance 100
scalar OsgEarthNet.uav[85] utilizationCountChargeState 50
scalar OsgEarthNet.uav[85] utilizationCountOverdrawnAfterMission 0
scalar OsgEarthNet.uav[85] utilizationCountIdleState 49
scalar OsgEarthNet.uav[85] utilizationFail 0
scalar OsgEarthNet.uav[85] simulationTime 259200
scalar OsgEarthNet.uav[86] utilizationSecMission 17389.377288704
scalar OsgEarthNet.uav[86] utilizationSecMaintenance 8811.5028170206
scalar OsgEarthNet.uav[86] utilizationSecCharge 94236.979081131
scalar OsgEarthNet.uav[86] utilizationSecIdle 138762.13981314
scalar OsgEarthNet.uav[86] utilizationEnergyMission 84237.743900299
scalar OsgEarthNet.uav[86] utilizationEnergyMaintenance 41824.610683441
scalar OsgEarthNet.uav[86] utilizationEnergyCharge 121087.40423584
scalar OsgEarthNet.uav[86] utilizationEnergyOverdrawMission 0
scalar OsgEarthNet.uav[86] utilizationEnergyOverdrawMaintenance 0
scalar OsgEarthNet.uav[86] utilizationCountMissions 28
scalar OsgEarthNet.uav[86] utilizationCountManeuversMission 479
scalar OsgEarthNet.uav[86] utilizationCountManeuversMaintenance 56
scalar OsgEarthNet.uav[86] utilizationCountChargeState 28
scalar OsgEarthNet.uav[86] utilizationCountOverdrawnAfterMission 0
scalar OsgEarthNet.uav[86] utilizationCountIdleState 28
scalar OsgEarthNet.uav[86] utilizationFail 0
scalar OsgEarthNet.uav[86] simulationTime 259200
scalar OsgEarthNet.uav[87] utilizationSecMission 28777.126994727
scalar OsgEarthNet.uav[87] utilizationSecMaintenance 17759.319323693
scalar OsgEarthNet.uav[87] utilizationSecCharge 177142.49488639
scalar OsgEarthNet.uav[87] utilizationSecIdle 35521.057795193
scalar OsgEarthNet.uav[87] utilizationEnergyMission 139683.69323349
scalar OsgEarthNet.uav[87] utilizationEnergyMaintenance 84565.970165253
scalar OsgEarthNet.uav[87] utilizationEnergyCharge 219791.71435547
scalar OsgEarthNet.uav[87] utilizationEnergyOverdrawMission 0
scalar OsgEarthNet.uav[87] utilizationEnergyOverdrawMaintenance 0
scalar OsgEarthNet.uav[87] utilizationCountMissions 56
scalar OsgEarthNet.uav[87] utilizationCountManeuversMission 893
scalar OsgEarthNet.uav[87] utilizationCountManeuversMaintenance 112
scalar OsgEarthNet.uav[87] utilizationCountChargeState 56
scalar OsgEarthNet.uav[87] utilizationCountOverdrawnAfterMission 0
scalar OsgEarthNet.uav[87] utilizationCountIdleState 56
scalar OsgEarthNet.uav[87] utilizationFail 0
scalar OsgEarthNet.uav[87] simulationTime 259200
scalar OsgEarthNet.uav[88] utilizationSecMission 34562.691726355
scalar OsgEarthNet.uav[88] utilizationSecMaintenance 14777.881926355
scalar OsgEarthNet.uav[88] utilizationSecCharge 180860
scalar OsgEarthNet.uav[88] utilizationSecIdle 28999.42534729
scalar OsgEarthNet.uav[88] utilizationEnergyMission 169003.99600905
scalar OsgEarthNet.uav[88] utilizationEnergyMaintenance 67913.209873199
scalar OsgEarthNet.uav[88] utilizationEnergyCharge 234106.88183594
scalar OsgEarthNet.uav[88] utilizationEnergyOverdrawMission 0
scalar OsgEarthNet.uav[88] utilizationEnergyOverdrawMaintenance 0
scalar OsgEarthNet.uav[88] utilizationCountMissions 51
scalar OsgEarthNet.uav[88] utilizationCountManeuversMission 1195
scalar OsgEarthNet.uav[88] utilizationCountManeuversMaintenance 103
scalar OsgEarthNet.uav[88] utilizationCountChargeState 51
scalar OsgEarthNet.uav[88] utilizationCountOverdrawnAfterMission 0
scalar OsgEarthNet.uav[88] utilizationCountIdleState 51
scalar OsgEarthNet.uav[88] utilizationFail 0
scalar OsgEarthNet.uav[88] simulationTime 259200
scalar OsgEarthNet.uav[89] utilizationSecMission 19640.895209365
scalar OsgEarthNet.uav[89] utilizationSecMaintenance 10740.23363358
scalar OsgEarthNet.uav[89] utilizationSecCharge 113026.86515705
scalar OsgEarthNet.uav[89] utilizationSecIdle 115792.005
scalar OsgEarthNet.uav[89] utilizationEnergyMission 95199.288101196
scalar OsgEarthNet.uav[89] utilizationEnergyMaintenance 50377.963329315
scalar OsgEarthNet.uav[89] utilizationEnergyCharge 144808.54541016
scalar OsgEarthNet.uav[89] utilizationEnergyOverdrawMission 0
scalar OsgEarthNet.uav[89] utilizationEnergyOverdrawMaintenance 0
scalar OsgEarthNet.uav[89] utilizationCountMissions 33
scalar OsgEarthNet.uav[89] utilizationCountManeuversMission 549
scalar OsgEarthNet.uav[89] utilizationCountManeuversMaintenance 66
scalar OsgEarthNet.uav[89] utilizationCountChargeState 33
scalar OsgEarthNet.uav[89] utilizationCountOverdrawnAfterMission 0
scalar OsgEarthNet.uav[89] utilizationCountIdleState 33
scalar OsgEarthNet.uav[89] utilizationFail 0
scalar OsgEarthNet.uav[89] simulationTime 259200
scalar OsgEarthNet.cs[0] usedPower 3991657.3175463
scalar OsgEarthNet.cs[0] chargedPower 3991657.3175463
scalar OsgEarthNet.cs[0] chargedMobileNodes 878
scalar OsgEarthNet.cs[0] reservations 891
scalar OsgEarthNet.cs[1] usedPower 5684396.1994303
scalar OsgEarthNet.cs[1] chargedPower 5684396.1994303
scalar OsgEarthNet.cs[1] chargedMobileNodes 1390
scalar OsgEarthNet.cs[1] reservations 1411
scalar OsgEarthNet.cs[2] usedPower 6971410.4169714
scalar OsgEarthNet.cs[2] chargedPower 6971410.4169714
scalar OsgEarthNet.cs[2] chargedMobileNodes 1472
scalar OsgEarthNet.cs[2] reservations 1523

