version 2
run Szenario_Hotel_Gabelbach-96-20180712-01:35:01-18236
attr configname Szenario_Hotel_Gabelbach
attr datetime 20180712-01:35:01
attr experiment Szenario_Hotel_Gabelbach
attr inifile omnetpp.ini
attr iterationvars "$replM=2, $biWeight=0.35, $replSearchM=1, $numUAVs=55"
attr iterationvarsf replM=2,biWeight=0.35,replSearchM=1,numUAVs=55-
attr measurement "$replM=2, $biWeight=0.35, $replSearchM=1, $numUAVs=55"
attr network OsgEarthNet
attr processid 18236
attr repetition 0
attr replication #0
attr resultdir results
attr runnumber 96
attr seedset 96
itervar biWeight 0.35
itervar numUAVs 55
itervar replM 2
itervar replSearchM 1
param *.osgEarthScene.scene "\"Szenario_Hotel_Gabelbach.earth\""
param *.playgroundLatitude 50.6830269
param *.playgroundLongitude 10.8538055
param *.playgroundWidth 3500m
param *.playgroundHeight 3500m
param *.cs[0].posX 3537m
param *.cs[0].posY 965m
param *.cs[0].posZ 538m
param *.cs[1].posX 312m
param *.cs[1].posY 1262m
param *.cs[1].posZ 539m
param *.cs[2].posX 2185m
param *.cs[2].posY 3026m
param *.cs[2].posZ 777m
param *.cs[3].posX 10m
param *.cs[3].posY 2200m
param *.cs[3].posZ 560m
param *.cs[4].posX 750m
param *.cs[4].posY 200m
param *.cs[4].posZ 540m
param *.cs[5].posX 2450m
param *.cs[5].posY 180m
param *.cs[5].posZ 524m
param *.cs[6].posX 3140m
param *.cs[6].posY 1790m
param *.cs[6].posZ 606m
param *.numCSs 3
param *.uav[*].replacementMethod 2
param *.uav[*].weightedSumWeight 0.35
param *.missionControl.replacementSearchMethod 1
param *.numUAVs 55
param *.numCSs 3
param *.numUAVs 100
param *.*.timeStep 10s
param *.uav[*].commandPreviewCommandCount 20
param *.missionControl.missionFiles "\"missions\\\\Szenario_WB_Hotel_Gabelbach_Mission_Hotel.waypoints,missions\\\\Szenario_WB_Hotel_Gabelbach_Mission_Kickelhahn.waypoints,missions\\\\Szenario_WB_Hotel_Gabelbach_Mission_Ilmenau_Sportplatz.waypoints,missions\\\\Szenario_WB_Hotel_Gabelbach_Mission_Manebach_Mitte.waypoints,missions\\\\Szenario_WB_Hotel_Gabelbach_Mission_Manebach_Sued.waypoints,missions\\\\Szenario_WB_Hotel_Gabelbach_Hover_HoheSchlaufe.waypoints,missions\\\\Szenario_WB_Hotel_Gabelbach_Hover_Kickelhahn.waypoints,missions\\\\Szenario_WB_Hotel_Gabelbach_Hover_Gabelbachskopf.waypoints,missions\\\\Szenario_WB_Hotel_Gabelbach_Hover_Dachskopf.waypoints\""
param *.uav[0].startX 3537m
param *.uav[0].startY 965m
param *.uav[0].startZ 539m
param *.uav[1].startX 312m
param *.uav[1].startY 1262m
param *.uav[1].startZ 540m
param *.uav[2].startX 2185m
param *.uav[2].startY 3026m
param *.uav[2].startZ 778m
param *.uav[3].startX 3537m
param *.uav[3].startY 965m
param *.uav[3].startZ 539m
param *.uav[4].startX 312m
param *.uav[4].startY 1262m
param *.uav[4].startZ 540m
param *.uav[5].startX 2185m
param *.uav[5].startY 3026m
param *.uav[5].startZ 778m
param *.uav[6].startX 3537m
param *.uav[6].startY 965m
param *.uav[6].startZ 539m
param *.uav[7].startX 312m
param *.uav[7].startY 1262m
param *.uav[7].startZ 540m
param *.uav[8].startX 2185m
param *.uav[8].startY 3026m
param *.uav[8].startZ 778m
param *.uav[9].startX 3537m
param *.uav[9].startY 965m
param *.uav[9].startZ 539m
param *.uav[10].startX 3537m
param *.uav[10].startY 965m
param *.uav[10].startZ 539m
param *.uav[11].startX 312m
param *.uav[11].startY 1262m
param *.uav[11].startZ 540m
param *.uav[12].startX 2185m
param *.uav[12].startY 3026m
param *.uav[12].startZ 778m
param *.uav[13].startX 3537m
param *.uav[13].startY 965m
param *.uav[13].startZ 539m
param *.uav[14].startX 312m
param *.uav[14].startY 1262m
param *.uav[14].startZ 540m
param *.uav[15].startX 2185m
param *.uav[15].startY 3026m
param *.uav[15].startZ 778m
param *.uav[16].startX 3537m
param *.uav[16].startY 965m
param *.uav[16].startZ 539m
param *.uav[17].startX 312m
param *.uav[17].startY 1262m
param *.uav[17].startZ 540m
param *.uav[18].startX 2185m
param *.uav[18].startY 3026m
param *.uav[18].startZ 778m
param *.uav[19].startX 3537m
param *.uav[19].startY 965m
param *.uav[19].startZ 539m
param *.uav[20].startX 3537m
param *.uav[20].startY 965m
param *.uav[20].startZ 539m
param *.uav[21].startX 312m
param *.uav[21].startY 1262m
param *.uav[21].startZ 540m
param *.uav[22].startX 2185m
param *.uav[22].startY 3026m
param *.uav[22].startZ 778m
param *.uav[23].startX 3537m
param *.uav[23].startY 965m
param *.uav[23].startZ 539m
param *.uav[24].startX 312m
param *.uav[24].startY 1262m
param *.uav[24].startZ 540m
param *.uav[25].startX 2185m
param *.uav[25].startY 3026m
param *.uav[25].startZ 778m
param *.uav[26].startX 3537m
param *.uav[26].startY 965m
param *.uav[26].startZ 539m
param *.uav[27].startX 312m
param *.uav[27].startY 1262m
param *.uav[27].startZ 540m
param *.uav[28].startX 2185m
param *.uav[28].startY 3026m
param *.uav[28].startZ 778m
param *.uav[29].startX 3537m
param *.uav[29].startY 965m
param *.uav[29].startZ 539m
param *.uav[30].startX 3537m
param *.uav[30].startY 965m
param *.uav[30].startZ 539m
param *.uav[31].startX 312m
param *.uav[31].startY 1262m
param *.uav[31].startZ 540m
param *.uav[32].startX 2185m
param *.uav[32].startY 3026m
param *.uav[32].startZ 778m
param *.uav[33].startX 3537m
param *.uav[33].startY 965m
param *.uav[33].startZ 539m
param *.uav[34].startX 312m
param *.uav[34].startY 1262m
param *.uav[34].startZ 540m
param *.uav[35].startX 2185m
param *.uav[35].startY 3026m
param *.uav[35].startZ 778m
param *.uav[36].startX 3537m
param *.uav[36].startY 965m
param *.uav[36].startZ 539m
param *.uav[37].startX 312m
param *.uav[37].startY 1262m
param *.uav[37].startZ 540m
param *.uav[38].startX 2185m
param *.uav[38].startY 3026m
param *.uav[38].startZ 778m
param *.uav[39].startX 3537m
param *.uav[39].startY 965m
param *.uav[39].startZ 539m
param *.uav[40].startX 3537m
param *.uav[40].startY 965m
param *.uav[40].startZ 539m
param *.uav[41].startX 312m
param *.uav[41].startY 1262m
param *.uav[41].startZ 540m
param *.uav[42].startX 2185m
param *.uav[42].startY 3026m
param *.uav[42].startZ 778m
param *.uav[43].startX 3537m
param *.uav[43].startY 965m
param *.uav[43].startZ 539m
param *.uav[44].startX 312m
param *.uav[44].startY 1262m
param *.uav[44].startZ 540m
param *.uav[45].startX 2185m
param *.uav[45].startY 3026m
param *.uav[45].startZ 778m
param *.uav[46].startX 3537m
param *.uav[46].startY 965m
param *.uav[46].startZ 539m
param *.uav[47].startX 312m
param *.uav[47].startY 1262m
param *.uav[47].startZ 540m
param *.uav[48].startX 2185m
param *.uav[48].startY 3026m
param *.uav[48].startZ 778m
param *.uav[49].startX 3537m
param *.uav[49].startY 965m
param *.uav[49].startZ 539m
param *.uav[50].startX 3537m
param *.uav[50].startY 965m
param *.uav[50].startZ 539m
param *.uav[51].startX 312m
param *.uav[51].startY 1262m
param *.uav[51].startZ 540m
param *.uav[52].startX 2185m
param *.uav[52].startY 3026m
param *.uav[52].startZ 778m
param *.uav[53].startX 3537m
param *.uav[53].startY 965m
param *.uav[53].startZ 539m
param *.uav[54].startX 312m
param *.uav[54].startY 1262m
param *.uav[54].startZ 540m
param *.uav[55].startX 2185m
param *.uav[55].startY 3026m
param *.uav[55].startZ 778m
param *.uav[56].startX 3537m
param *.uav[56].startY 965m
param *.uav[56].startZ 539m
param *.uav[57].startX 312m
param *.uav[57].startY 1262m
param *.uav[57].startZ 540m
param *.uav[58].startX 2185m
param *.uav[58].startY 3026m
param *.uav[58].startZ 778m
param *.uav[59].startX 3537m
param *.uav[59].startY 965m
param *.uav[59].startZ 539m
param *.uav[60].startX 3537m
param *.uav[60].startY 965m
param *.uav[60].startZ 539m
param *.uav[61].startX 312m
param *.uav[61].startY 1262m
param *.uav[61].startZ 540m
param *.uav[62].startX 2185m
param *.uav[62].startY 3026m
param *.uav[62].startZ 778m
param *.uav[63].startX 3537m
param *.uav[63].startY 965m
param *.uav[63].startZ 539m
param *.uav[64].startX 312m
param *.uav[64].startY 1262m
param *.uav[64].startZ 540m
param *.uav[65].startX 2185m
param *.uav[65].startY 3026m
param *.uav[65].startZ 778m
param *.uav[66].startX 3537m
param *.uav[66].startY 965m
param *.uav[66].startZ 539m
param *.uav[67].startX 312m
param *.uav[67].startY 1262m
param *.uav[67].startZ 540m
param *.uav[68].startX 2185m
param *.uav[68].startY 3026m
param *.uav[68].startZ 778m
param *.uav[69].startX 3537m
param *.uav[69].startY 965m
param *.uav[69].startZ 539m
param *.uav[70].startX 3537m
param *.uav[70].startY 965m
param *.uav[70].startZ 539m
param *.uav[71].startX 312m
param *.uav[71].startY 1262m
param *.uav[71].startZ 540m
param *.uav[72].startX 2185m
param *.uav[72].startY 3026m
param *.uav[72].startZ 778m
param *.uav[73].startX 3537m
param *.uav[73].startY 965m
param *.uav[73].startZ 539m
param *.uav[74].startX 312m
param *.uav[74].startY 1262m
param *.uav[74].startZ 540m
param *.uav[75].startX 2185m
param *.uav[75].startY 3026m
param *.uav[75].startZ 778m
param *.uav[76].startX 3537m
param *.uav[76].startY 965m
param *.uav[76].startZ 539m
param *.uav[77].startX 312m
param *.uav[77].startY 1262m
param *.uav[77].startZ 540m
param *.uav[78].startX 2185m
param *.uav[78].startY 3026m
param *.uav[78].startZ 778m
param *.uav[79].startX 3537m
param *.uav[79].startY 965m
param *.uav[79].startZ 539m
param *.uav[80].startX 3537m
param *.uav[80].startY 965m
param *.uav[80].startZ 539m
param *.uav[81].startX 312m
param *.uav[81].startY 1262m
param *.uav[81].startZ 540m
param *.uav[82].startX 2185m
param *.uav[82].startY 3026m
param *.uav[82].startZ 778m
param *.uav[83].startX 3537m
param *.uav[83].startY 965m
param *.uav[83].startZ 539m
param *.uav[84].startX 312m
param *.uav[84].startY 1262m
param *.uav[84].startZ 540m
param *.uav[85].startX 2185m
param *.uav[85].startY 3026m
param *.uav[85].startZ 778m
param *.uav[86].startX 3537m
param *.uav[86].startY 965m
param *.uav[86].startZ 539m
param *.uav[87].startX 312m
param *.uav[87].startY 1262m
param *.uav[87].startZ 540m
param *.uav[88].startX 2185m
param *.uav[88].startY 3026m
param *.uav[88].startZ 778m
param *.uav[89].startX 3537m
param *.uav[89].startY 965m
param *.uav[89].startZ 539m
param *.uav[90].startX 3537m
param *.uav[90].startY 965m
param *.uav[90].startZ 539m
param *.uav[91].startX 312m
param *.uav[91].startY 1262m
param *.uav[91].startZ 540m
param *.uav[92].startX 2185m
param *.uav[92].startY 3026m
param *.uav[92].startZ 778m
param *.uav[93].startX 3537m
param *.uav[93].startY 965m
param *.uav[93].startZ 539m
param *.uav[94].startX 312m
param *.uav[94].startY 1262m
param *.uav[94].startZ 540m
param *.uav[95].startX 2185m
param *.uav[95].startY 3026m
param *.uav[95].startZ 778m
param *.uav[96].startX 3537m
param *.uav[96].startY 965m
param *.uav[96].startZ 539m
param *.uav[97].startX 312m
param *.uav[97].startY 1262m
param *.uav[97].startZ 540m
param *.uav[98].startX 2185m
param *.uav[98].startY 3026m
param *.uav[98].startZ 778m
param *.uav[99].startX 3537m
param *.uav[99].startY 965m
param *.uav[99].startZ 539m
param *.osgEarthScene.scene "\"boston.earth\""
param *.playgroundLatitude 42.3558
param *.playgroundLongitude -71.0677
param *.playgroundWidth 400m
param *.playgroundHeight 200m
param *.channelController.connectionColor "\"#0000FF40\""
param *.channelController.showConnections false
param *.uav[*].modelURL "\"quadrocopter.small.obj.15.scale.0,0,90.rot\""
param *.uav[*].labelColor "\"#FF7C00CC\""
param *.uav[*].label2Color "\"#FF7C00EE\""
param *.uav[*].batteryCapacity 5200mAh
param *.uav[*].batteryRemaining uav[index].batteryCapacity
param *.uav[*].predictionQuantile 0.95
param *.uav[*].replacementMethod 2
param *.uav[*].weightedSumWeight 0.5
param *.cs[*].modelURL "\"chargingstation_v1.osgt.2.scale.0,0,0.rot.0,0,-15e-1.trans\""
param *.cs[*].spotsWaiting 999
param *.cs[*].spotsCharging 999
param *.cs[*].chargeEffectivenessPercentage 100
param *.cs[*].nonLinearPhaseStartPercentage 85
param *.cs[*].chargeCurrent 6.0A
param *.cs[*].prioritizeFastCharge true
param *.missionControl.replacementSearchMethod 0
param *.*.timeStep 9s

scalar OsgEarthNet.uav[0] utilizationSecMission 42281.793208082
scalar OsgEarthNet.uav[0] utilizationSecMaintenance 24605.579631128
scalar OsgEarthNet.uav[0] utilizationSecCharge 191550
scalar OsgEarthNet.uav[0] utilizationSecIdle 762.62616078931
scalar OsgEarthNet.uav[0] utilizationEnergyMission 205587.10101789
scalar OsgEarthNet.uav[0] utilizationEnergyMaintenance 115093.6397438
scalar OsgEarthNet.uav[0] utilizationEnergyCharge 318265.84716797
scalar OsgEarthNet.uav[0] utilizationEnergyOverdrawMission 0
scalar OsgEarthNet.uav[0] utilizationEnergyOverdrawMaintenance 0
scalar OsgEarthNet.uav[0] utilizationCountMissions 75
scalar OsgEarthNet.uav[0] utilizationCountManeuversMission 1227
scalar OsgEarthNet.uav[0] utilizationCountManeuversMaintenance 151
scalar OsgEarthNet.uav[0] utilizationCountChargeState 75
scalar OsgEarthNet.uav[0] utilizationCountOverdrawnAfterMission 0
scalar OsgEarthNet.uav[0] utilizationCountIdleState 1
scalar OsgEarthNet.uav[0] utilizationFail 0
scalar OsgEarthNet.uav[0] simulationTime 259200
scalar OsgEarthNet.uav[1] utilizationSecMission 40052.359682756
scalar OsgEarthNet.uav[1] utilizationSecMaintenance 27631.152570872
scalar OsgEarthNet.uav[1] utilizationSecCharge 190994.48574637
scalar OsgEarthNet.uav[1] utilizationSecIdle 522.001
scalar OsgEarthNet.uav[1] utilizationEnergyMission 195820.3616066
scalar OsgEarthNet.uav[1] utilizationEnergyMaintenance 130432.69186783
scalar OsgEarthNet.uav[1] utilizationEnergyCharge 321259.50769043
scalar OsgEarthNet.uav[1] utilizationEnergyOverdrawMission 0
scalar OsgEarthNet.uav[1] utilizationEnergyOverdrawMaintenance 0
scalar OsgEarthNet.uav[1] utilizationCountMissions 78
scalar OsgEarthNet.uav[1] utilizationCountManeuversMission 1364
scalar OsgEarthNet.uav[1] utilizationCountManeuversMaintenance 156
scalar OsgEarthNet.uav[1] utilizationCountChargeState 78
scalar OsgEarthNet.uav[1] utilizationCountOverdrawnAfterMission 0
scalar OsgEarthNet.uav[1] utilizationCountIdleState 1
scalar OsgEarthNet.uav[1] utilizationFail 0
scalar OsgEarthNet.uav[1] simulationTime 259200
scalar OsgEarthNet.uav[2] utilizationSecMission 37348.760659732
scalar OsgEarthNet.uav[2] utilizationSecMaintenance 27649.839855883
scalar OsgEarthNet.uav[2] utilizationSecCharge 192500
scalar OsgEarthNet.uav[2] utilizationSecIdle 1701.3984843856
scalar OsgEarthNet.uav[2] utilizationEnergyMission 180462.49202728
scalar OsgEarthNet.uav[2] utilizationEnergyMaintenance 131508.76398472
scalar OsgEarthNet.uav[2] utilizationEnergyCharge 314441.25488281
scalar OsgEarthNet.uav[2] utilizationEnergyOverdrawMission 0
scalar OsgEarthNet.uav[2] utilizationEnergyOverdrawMaintenance 0
scalar OsgEarthNet.uav[2] utilizationCountMissions 78
scalar OsgEarthNet.uav[2] utilizationCountManeuversMission 1182
scalar OsgEarthNet.uav[2] utilizationCountManeuversMaintenance 157
scalar OsgEarthNet.uav[2] utilizationCountChargeState 78
scalar OsgEarthNet.uav[2] utilizationCountOverdrawnAfterMission 0
scalar OsgEarthNet.uav[2] utilizationCountIdleState 1
scalar OsgEarthNet.uav[2] utilizationFail 0
scalar OsgEarthNet.uav[2] simulationTime 259200
scalar OsgEarthNet.uav[3] utilizationSecMission 46318.519744531
scalar OsgEarthNet.uav[3] utilizationSecMaintenance 20825.755636667
scalar OsgEarthNet.uav[3] utilizationSecCharge 189265.80547626
scalar OsgEarthNet.uav[3] utilizationSecIdle 2789.9181425466
scalar OsgEarthNet.uav[3] utilizationEnergyMission 224367.95176315
scalar OsgEarthNet.uav[3] utilizationEnergyMaintenance 96558.731639862
scalar OsgEarthNet.uav[3] utilizationEnergyCharge 319829.78930664
scalar OsgEarthNet.uav[3] utilizationEnergyOverdrawMission 0
scalar OsgEarthNet.uav[3] utilizationEnergyOverdrawMaintenance 0
scalar OsgEarthNet.uav[3] utilizationCountMissions 73
scalar OsgEarthNet.uav[3] utilizationCountManeuversMission 1424
scalar OsgEarthNet.uav[3] utilizationCountManeuversMaintenance 146
scalar OsgEarthNet.uav[3] utilizationCountChargeState 73
scalar OsgEarthNet.uav[3] utilizationCountOverdrawnAfterMission 0
scalar OsgEarthNet.uav[3] utilizationCountIdleState 1
scalar OsgEarthNet.uav[3] utilizationFail 0
scalar OsgEarthNet.uav[3] simulationTime 259200
scalar OsgEarthNet.uav[4] utilizationSecMission 39786.077999671
scalar OsgEarthNet.uav[4] utilizationSecMaintenance 27320.285401867
scalar OsgEarthNet.uav[4] utilizationSecCharge 191509.02370895
scalar OsgEarthNet.uav[4] utilizationSecIdle 584.61188951643
scalar OsgEarthNet.uav[4] utilizationEnergyMission 194110.25532913
scalar OsgEarthNet.uav[4] utilizationEnergyMaintenance 128304.5189743
scalar OsgEarthNet.uav[4] utilizationEnergyCharge 317613.53088379
scalar OsgEarthNet.uav[4] utilizationEnergyOverdrawMission 0
scalar OsgEarthNet.uav[4] utilizationEnergyOverdrawMaintenance 0
scalar OsgEarthNet.uav[4] utilizationCountMissions 79
scalar OsgEarthNet.uav[4] utilizationCountManeuversMission 1308
scalar OsgEarthNet.uav[4] utilizationCountManeuversMaintenance 158
scalar OsgEarthNet.uav[4] utilizationCountChargeState 79
scalar OsgEarthNet.uav[4] utilizationCountOverdrawnAfterMission 0
scalar OsgEarthNet.uav[4] utilizationCountIdleState 1
scalar OsgEarthNet.uav[4] utilizationFail 0
scalar OsgEarthNet.uav[4] simulationTime 259200
scalar OsgEarthNet.uav[5] utilizationSecMission 44392.089655936
scalar OsgEarthNet.uav[5] utilizationSecMaintenance 22978.515616817
scalar OsgEarthNet.uav[5] utilizationSecCharge 191140.17411333
scalar OsgEarthNet.uav[5] utilizationSecIdle 689.21961391566
scalar OsgEarthNet.uav[5] utilizationEnergyMission 214618.89173508
scalar OsgEarthNet.uav[5] utilizationEnergyMaintenance 108849.85773468
scalar OsgEarthNet.uav[5] utilizationEnergyCharge 320509.32104492
scalar OsgEarthNet.uav[5] utilizationEnergyOverdrawMission 0
scalar OsgEarthNet.uav[5] utilizationEnergyOverdrawMaintenance 0
scalar OsgEarthNet.uav[5] utilizationCountMissions 74
scalar OsgEarthNet.uav[5] utilizationCountManeuversMission 1326
scalar OsgEarthNet.uav[5] utilizationCountManeuversMaintenance 148
scalar OsgEarthNet.uav[5] utilizationCountChargeState 74
scalar OsgEarthNet.uav[5] utilizationCountOverdrawnAfterMission 0
scalar OsgEarthNet.uav[5] utilizationCountIdleState 1
scalar OsgEarthNet.uav[5] utilizationFail 0
scalar OsgEarthNet.uav[5] simulationTime 259200
scalar OsgEarthNet.uav[6] utilizationSecMission 39650.210255382
scalar OsgEarthNet.uav[6] utilizationSecMaintenance 26095.69485359
scalar OsgEarthNet.uav[6] utilizationSecCharge 191612.08989103
scalar OsgEarthNet.uav[6] utilizationSecIdle 1842.004
scalar OsgEarthNet.uav[6] utilizationEnergyMission 191603.64853668
scalar OsgEarthNet.uav[6] utilizationEnergyMaintenance 122711.66543961
scalar OsgEarthNet.uav[6] utilizationEnergyCharge 312722.43591309
scalar OsgEarthNet.uav[6] utilizationEnergyOverdrawMission 0
scalar OsgEarthNet.uav[6] utilizationEnergyOverdrawMaintenance 0
scalar OsgEarthNet.uav[6] utilizationCountMissions 77
scalar OsgEarthNet.uav[6] utilizationCountManeuversMission 1261
scalar OsgEarthNet.uav[6] utilizationCountManeuversMaintenance 154
scalar OsgEarthNet.uav[6] utilizationCountChargeState 77
scalar OsgEarthNet.uav[6] utilizationCountOverdrawnAfterMission 0
scalar OsgEarthNet.uav[6] utilizationCountIdleState 1
scalar OsgEarthNet.uav[6] utilizationFail 0
scalar OsgEarthNet.uav[6] simulationTime 259200
scalar OsgEarthNet.uav[7] utilizationSecMission 45848.811924324
scalar OsgEarthNet.uav[7] utilizationSecMaintenance 21553.666640227
scalar OsgEarthNet.uav[7] utilizationSecCharge 191795.52043545
scalar OsgEarthNet.uav[7] utilizationSecIdle 2
scalar OsgEarthNet.uav[7] utilizationEnergyMission 221020.18795013
scalar OsgEarthNet.uav[7] utilizationEnergyMaintenance 100830.04451752
scalar OsgEarthNet.uav[7] utilizationEnergyCharge 321828.77734375
scalar OsgEarthNet.uav[7] utilizationEnergyOverdrawMission 0
scalar OsgEarthNet.uav[7] utilizationEnergyOverdrawMaintenance 0
scalar OsgEarthNet.uav[7] utilizationCountMissions 74
scalar OsgEarthNet.uav[7] utilizationCountManeuversMission 1345
scalar OsgEarthNet.uav[7] utilizationCountManeuversMaintenance 147
scalar OsgEarthNet.uav[7] utilizationCountChargeState 74
scalar OsgEarthNet.uav[7] utilizationCountOverdrawnAfterMission 0
scalar OsgEarthNet.uav[7] utilizationCountIdleState 1
scalar OsgEarthNet.uav[7] utilizationFail 0
scalar OsgEarthNet.uav[7] simulationTime 259200
scalar OsgEarthNet.uav[8] utilizationSecMission 39443.617186741
scalar OsgEarthNet.uav[8] utilizationSecMaintenance 26928.096427177
scalar OsgEarthNet.uav[8] utilizationSecCharge 192060.83512205
scalar OsgEarthNet.uav[8] utilizationSecIdle 767.4502640309
scalar OsgEarthNet.uav[8] utilizationEnergyMission 191339.87620544
scalar OsgEarthNet.uav[8] utilizationEnergyMaintenance 127321.79484177
scalar OsgEarthNet.uav[8] utilizationEnergyCharge 317216.6550293
scalar OsgEarthNet.uav[8] utilizationEnergyOverdrawMission 0
scalar OsgEarthNet.uav[8] utilizationEnergyOverdrawMaintenance 0
scalar OsgEarthNet.uav[8] utilizationCountMissions 77
scalar OsgEarthNet.uav[8] utilizationCountManeuversMission 1346
scalar OsgEarthNet.uav[8] utilizationCountManeuversMaintenance 154
scalar OsgEarthNet.uav[8] utilizationCountChargeState 77
scalar OsgEarthNet.uav[8] utilizationCountOverdrawnAfterMission 0
scalar OsgEarthNet.uav[8] utilizationCountIdleState 1
scalar OsgEarthNet.uav[8] utilizationFail 0
scalar OsgEarthNet.uav[8] simulationTime 259200
scalar OsgEarthNet.uav[9] utilizationSecMission 45474.073065813
scalar OsgEarthNet.uav[9] utilizationSecMaintenance 21788.932703104
scalar OsgEarthNet.uav[9] utilizationSecCharge 189448.41357421
scalar OsgEarthNet.uav[9] utilizationSecIdle 2488.5796568717
scalar OsgEarthNet.uav[9] utilizationEnergyMission 218849.55178452
scalar OsgEarthNet.uav[9] utilizationEnergyMaintenance 100502.67744064
scalar OsgEarthNet.uav[9] utilizationEnergyCharge 315434.16137695
scalar OsgEarthNet.uav[9] utilizationEnergyOverdrawMission 0
scalar OsgEarthNet.uav[9] utilizationEnergyOverdrawMaintenance 0
scalar OsgEarthNet.uav[9] utilizationCountMissions 73
scalar OsgEarthNet.uav[9] utilizationCountManeuversMission 1242
scalar OsgEarthNet.uav[9] utilizationCountManeuversMaintenance 146
scalar OsgEarthNet.uav[9] utilizationCountChargeState 73
scalar OsgEarthNet.uav[9] utilizationCountOverdrawnAfterMission 0
scalar OsgEarthNet.uav[9] utilizationCountIdleState 1
scalar OsgEarthNet.uav[9] utilizationFail 0
scalar OsgEarthNet.uav[9] simulationTime 259200
scalar OsgEarthNet.uav[10] utilizationSecMission 41748.087583319
scalar OsgEarthNet.uav[10] utilizationSecMaintenance 24655.811149847
scalar OsgEarthNet.uav[10] utilizationSecCharge 190474.09526683
scalar OsgEarthNet.uav[10] utilizationSecIdle 2322.005
scalar OsgEarthNet.uav[10] utilizationEnergyMission 204601.94160461
scalar OsgEarthNet.uav[10] utilizationEnergyMaintenance 115790.75893021
scalar OsgEarthNet.uav[10] utilizationEnergyCharge 320061.30126953
scalar OsgEarthNet.uav[10] utilizationEnergyOverdrawMission 0
scalar OsgEarthNet.uav[10] utilizationEnergyOverdrawMaintenance 0
scalar OsgEarthNet.uav[10] utilizationCountMissions 75
scalar OsgEarthNet.uav[10] utilizationCountManeuversMission 1422
scalar OsgEarthNet.uav[10] utilizationCountManeuversMaintenance 150
scalar OsgEarthNet.uav[10] utilizationCountChargeState 75
scalar OsgEarthNet.uav[10] utilizationCountOverdrawnAfterMission 0
scalar OsgEarthNet.uav[10] utilizationCountIdleState 1
scalar OsgEarthNet.uav[10] utilizationFail 0
scalar OsgEarthNet.uav[10] simulationTime 259200
scalar OsgEarthNet.uav[11] utilizationSecMission 44857.479310276
scalar OsgEarthNet.uav[11] utilizationSecMaintenance 21474.245309089
scalar OsgEarthNet.uav[11] utilizationSecCharge 190233.85342646
scalar OsgEarthNet.uav[11] utilizationSecIdle 2634.4209541796
scalar OsgEarthNet.uav[11] utilizationEnergyMission 217998.86318588
scalar OsgEarthNet.uav[11] utilizationEnergyMaintenance 99146.247138977
scalar OsgEarthNet.uav[11] utilizationEnergyCharge 317163.97021484
scalar OsgEarthNet.uav[11] utilizationEnergyOverdrawMission 0
scalar OsgEarthNet.uav[11] utilizationEnergyOverdrawMaintenance 0
scalar OsgEarthNet.uav[11] utilizationCountMissions 73
scalar OsgEarthNet.uav[11] utilizationCountManeuversMission 1365
scalar OsgEarthNet.uav[11] utilizationCountManeuversMaintenance 146
scalar OsgEarthNet.uav[11] utilizationCountChargeState 73
scalar OsgEarthNet.uav[11] utilizationCountOverdrawnAfterMission 0
scalar OsgEarthNet.uav[11] utilizationCountIdleState 1
scalar OsgEarthNet.uav[11] utilizationFail 0
scalar OsgEarthNet.uav[11] simulationTime 259200
scalar OsgEarthNet.uav[12] utilizationSecMission 40117.227288859
scalar OsgEarthNet.uav[12] utilizationSecMaintenance 26356.852728943
scalar OsgEarthNet.uav[12] utilizationSecCharge 192723.9189822
scalar OsgEarthNet.uav[12] utilizationSecIdle 2
scalar OsgEarthNet.uav[12] utilizationEnergyMission 195810.65094917
scalar OsgEarthNet.uav[12] utilizationEnergyMaintenance 124181.44874191
scalar OsgEarthNet.uav[12] utilizationEnergyCharge 315550.1628418
scalar OsgEarthNet.uav[12] utilizationEnergyOverdrawMission 0
scalar OsgEarthNet.uav[12] utilizationEnergyOverdrawMaintenance 0
scalar OsgEarthNet.uav[12] utilizationCountMissions 77
scalar OsgEarthNet.uav[12] utilizationCountManeuversMission 1324
scalar OsgEarthNet.uav[12] utilizationCountManeuversMaintenance 153
scalar OsgEarthNet.uav[12] utilizationCountChargeState 77
scalar OsgEarthNet.uav[12] utilizationCountOverdrawnAfterMission 0
scalar OsgEarthNet.uav[12] utilizationCountIdleState 1
scalar OsgEarthNet.uav[12] utilizationFail 0
scalar OsgEarthNet.uav[12] simulationTime 259200
scalar OsgEarthNet.uav[13] utilizationSecMission 39586.818875809
scalar OsgEarthNet.uav[13] utilizationSecMaintenance 27261.4010655
scalar OsgEarthNet.uav[13] utilizationSecCharge 191429.77705869
scalar OsgEarthNet.uav[13] utilizationSecIdle 922.002
scalar OsgEarthNet.uav[13] utilizationEnergyMission 191727.61217117
scalar OsgEarthNet.uav[13] utilizationEnergyMaintenance 128358.97110748
scalar OsgEarthNet.uav[13] utilizationEnergyCharge 316756.82592773
scalar OsgEarthNet.uav[13] utilizationEnergyOverdrawMission 0
scalar OsgEarthNet.uav[13] utilizationEnergyOverdrawMaintenance 0
scalar OsgEarthNet.uav[13] utilizationCountMissions 78
scalar OsgEarthNet.uav[13] utilizationCountManeuversMission 1330
scalar OsgEarthNet.uav[13] utilizationCountManeuversMaintenance 156
scalar OsgEarthNet.uav[13] utilizationCountChargeState 78
scalar OsgEarthNet.uav[13] utilizationCountOverdrawnAfterMission 0
scalar OsgEarthNet.uav[13] utilizationCountIdleState 1
scalar OsgEarthNet.uav[13] utilizationFail 0
scalar OsgEarthNet.uav[13] simulationTime 259200
scalar OsgEarthNet.uav[14] utilizationSecMission 39959.98244821
scalar OsgEarthNet.uav[14] utilizationSecMaintenance 26118.933977827
scalar OsgEarthNet.uav[14] utilizationSecCharge 190935.64048527
scalar OsgEarthNet.uav[14] utilizationSecIdle 2185.4420886909
scalar OsgEarthNet.uav[14] utilizationEnergyMission 194082.5880661
scalar OsgEarthNet.uav[14] utilizationEnergyMaintenance 122886.13794708
scalar OsgEarthNet.uav[14] utilizationEnergyCharge 316350.12353516
scalar OsgEarthNet.uav[14] utilizationEnergyOverdrawMission 0
scalar OsgEarthNet.uav[14] utilizationEnergyOverdrawMaintenance 0
scalar OsgEarthNet.uav[14] utilizationCountMissions 77
scalar OsgEarthNet.uav[14] utilizationCountManeuversMission 1206
scalar OsgEarthNet.uav[14] utilizationCountManeuversMaintenance 154
scalar OsgEarthNet.uav[14] utilizationCountChargeState 77
scalar OsgEarthNet.uav[14] utilizationCountOverdrawnAfterMission 0
scalar OsgEarthNet.uav[14] utilizationCountIdleState 1
scalar OsgEarthNet.uav[14] utilizationFail 0
scalar OsgEarthNet.uav[14] simulationTime 259200
scalar OsgEarthNet.uav[15] utilizationSecMission 40650.016237972
scalar OsgEarthNet.uav[15] utilizationSecMaintenance 25744.456076438
scalar OsgEarthNet.uav[15] utilizationSecCharge 191302.82401787
scalar OsgEarthNet.uav[15] utilizationSecIdle 1502.7026677176
scalar OsgEarthNet.uav[15] utilizationEnergyMission 194764.9241066
scalar OsgEarthNet.uav[15] utilizationEnergyMaintenance 120377.54945374
scalar OsgEarthNet.uav[15] utilizationEnergyCharge 313888.59521484
scalar OsgEarthNet.uav[15] utilizationEnergyOverdrawMission 0
scalar OsgEarthNet.uav[15] utilizationEnergyOverdrawMaintenance 0
scalar OsgEarthNet.uav[15] utilizationCountMissions 76
scalar OsgEarthNet.uav[15] utilizationCountManeuversMission 1297
scalar OsgEarthNet.uav[15] utilizationCountManeuversMaintenance 152
scalar OsgEarthNet.uav[15] utilizationCountChargeState 76
scalar OsgEarthNet.uav[15] utilizationCountOverdrawnAfterMission 0
scalar OsgEarthNet.uav[15] utilizationCountIdleState 1
scalar OsgEarthNet.uav[15] utilizationFail 0
scalar OsgEarthNet.uav[15] simulationTime 259200
scalar OsgEarthNet.uav[16] utilizationSecMission 39614.595275924
scalar OsgEarthNet.uav[16] utilizationSecMaintenance 27115.762414447
scalar OsgEarthNet.uav[16] utilizationSecCharge 192027.64030963
scalar OsgEarthNet.uav[16] utilizationSecIdle 442.001
scalar OsgEarthNet.uav[16] utilizationEnergyMission 194101.94910812
scalar OsgEarthNet.uav[16] utilizationEnergyMaintenance 127970.2407608
scalar OsgEarthNet.uav[16] utilizationEnergyCharge 321275.17529297
scalar OsgEarthNet.uav[16] utilizationEnergyOverdrawMission 0
scalar OsgEarthNet.uav[16] utilizationEnergyOverdrawMaintenance 0
scalar OsgEarthNet.uav[16] utilizationCountMissions 77
scalar OsgEarthNet.uav[16] utilizationCountManeuversMission 1325
scalar OsgEarthNet.uav[16] utilizationCountManeuversMaintenance 154
scalar OsgEarthNet.uav[16] utilizationCountChargeState 77
scalar OsgEarthNet.uav[16] utilizationCountOverdrawnAfterMission 0
scalar OsgEarthNet.uav[16] utilizationCountIdleState 1
scalar OsgEarthNet.uav[16] utilizationFail 0
scalar OsgEarthNet.uav[16] simulationTime 259200
scalar OsgEarthNet.uav[17] utilizationSecMission 44953.693398758
scalar OsgEarthNet.uav[17] utilizationSecMaintenance 22548.964929017
scalar OsgEarthNet.uav[17] utilizationSecCharge 190196.37668655
scalar OsgEarthNet.uav[17] utilizationSecIdle 1500.9639856735
scalar OsgEarthNet.uav[17] utilizationEnergyMission 216033.55585098
scalar OsgEarthNet.uav[17] utilizationEnergyMaintenance 103771.24224854
scalar OsgEarthNet.uav[17] utilizationEnergyCharge 316761.60681152
scalar OsgEarthNet.uav[17] utilizationEnergyOverdrawMission 0
scalar OsgEarthNet.uav[17] utilizationEnergyOverdrawMaintenance 0
scalar OsgEarthNet.uav[17] utilizationCountMissions 75
scalar OsgEarthNet.uav[17] utilizationCountManeuversMission 1332
scalar OsgEarthNet.uav[17] utilizationCountManeuversMaintenance 150
scalar OsgEarthNet.uav[17] utilizationCountChargeState 75
scalar OsgEarthNet.uav[17] utilizationCountOverdrawnAfterMission 0
scalar OsgEarthNet.uav[17] utilizationCountIdleState 1
scalar OsgEarthNet.uav[17] utilizationFail 0
scalar OsgEarthNet.uav[17] simulationTime 259200
scalar OsgEarthNet.uav[18] utilizationSecMission 43532.672658267
scalar OsgEarthNet.uav[18] utilizationSecMaintenance 22331.178503827
scalar OsgEarthNet.uav[18] utilizationSecCharge 191774.14483791
scalar OsgEarthNet.uav[18] utilizationSecIdle 1562.003
scalar OsgEarthNet.uav[18] utilizationEnergyMission 210043.11849594
scalar OsgEarthNet.uav[18] utilizationEnergyMaintenance 105287.75408173
scalar OsgEarthNet.uav[18] utilizationEnergyCharge 314412.1340332
scalar OsgEarthNet.uav[18] utilizationEnergyOverdrawMission 0
scalar OsgEarthNet.uav[18] utilizationEnergyOverdrawMaintenance 0
scalar OsgEarthNet.uav[18] utilizationCountMissions 74
scalar OsgEarthNet.uav[18] utilizationCountManeuversMission 1290
scalar OsgEarthNet.uav[18] utilizationCountManeuversMaintenance 148
scalar OsgEarthNet.uav[18] utilizationCountChargeState 74
scalar OsgEarthNet.uav[18] utilizationCountOverdrawnAfterMission 0
scalar OsgEarthNet.uav[18] utilizationCountIdleState 1
scalar OsgEarthNet.uav[18] utilizationFail 0
scalar OsgEarthNet.uav[18] simulationTime 259200
scalar OsgEarthNet.uav[19] utilizationSecMission 41012.89471057
scalar OsgEarthNet.uav[19] utilizationSecMaintenance 26135.10428943
scalar OsgEarthNet.uav[19] utilizationSecCharge 192050
scalar OsgEarthNet.uav[19] utilizationSecIdle 2
scalar OsgEarthNet.uav[19] utilizationEnergyMission 197586.85662764
scalar OsgEarthNet.uav[19] utilizationEnergyMaintenance 123010.96325302
scalar OsgEarthNet.uav[19] utilizationEnergyCharge 317870.71923828
scalar OsgEarthNet.uav[19] utilizationEnergyOverdrawMission 0
scalar OsgEarthNet.uav[19] utilizationEnergyOverdrawMaintenance 0
scalar OsgEarthNet.uav[19] utilizationCountMissions 77
scalar OsgEarthNet.uav[19] utilizationCountManeuversMission 1310
scalar OsgEarthNet.uav[19] utilizationCountManeuversMaintenance 154
scalar OsgEarthNet.uav[19] utilizationCountChargeState 77
scalar OsgEarthNet.uav[19] utilizationCountOverdrawnAfterMission 0
scalar OsgEarthNet.uav[19] utilizationCountIdleState 1
scalar OsgEarthNet.uav[19] utilizationFail 0
scalar OsgEarthNet.uav[19] simulationTime 259200
scalar OsgEarthNet.uav[20] utilizationSecMission 42166.909123955
scalar OsgEarthNet.uav[20] utilizationSecMaintenance 24558.219935104
scalar OsgEarthNet.uav[20] utilizationSecCharge 189194.29951076
scalar OsgEarthNet.uav[20] utilizationSecIdle 3280.5704301809
scalar OsgEarthNet.uav[20] utilizationEnergyMission 205373.36262131
scalar OsgEarthNet.uav[20] utilizationEnergyMaintenance 115509.58761215
scalar OsgEarthNet.uav[20] utilizationEnergyCharge 315890.10302734
scalar OsgEarthNet.uav[20] utilizationEnergyOverdrawMission 0
scalar OsgEarthNet.uav[20] utilizationEnergyOverdrawMaintenance 0
scalar OsgEarthNet.uav[20] utilizationCountMissions 75
scalar OsgEarthNet.uav[20] utilizationCountManeuversMission 1298
scalar OsgEarthNet.uav[20] utilizationCountManeuversMaintenance 150
scalar OsgEarthNet.uav[20] utilizationCountChargeState 75
scalar OsgEarthNet.uav[20] utilizationCountOverdrawnAfterMission 0
scalar OsgEarthNet.uav[20] utilizationCountIdleState 1
scalar OsgEarthNet.uav[20] utilizationFail 0
scalar OsgEarthNet.uav[20] simulationTime 259200
scalar OsgEarthNet.uav[21] utilizationSecMission 39778.727336752
scalar OsgEarthNet.uav[21] utilizationSecMaintenance 26742.918060368
scalar OsgEarthNet.uav[21] utilizationSecCharge 190870
scalar OsgEarthNet.uav[21] utilizationSecIdle 1808.3536028792
scalar OsgEarthNet.uav[21] utilizationEnergyMission 195187.15356064
scalar OsgEarthNet.uav[21] utilizationEnergyMaintenance 126135.49810747
scalar OsgEarthNet.uav[21] utilizationEnergyCharge 318015.83544922
scalar OsgEarthNet.uav[21] utilizationEnergyOverdrawMission 0
scalar OsgEarthNet.uav[21] utilizationEnergyOverdrawMaintenance 0
scalar OsgEarthNet.uav[21] utilizationCountMissions 76
scalar OsgEarthNet.uav[21] utilizationCountManeuversMission 1346
scalar OsgEarthNet.uav[21] utilizationCountManeuversMaintenance 152
scalar OsgEarthNet.uav[21] utilizationCountChargeState 75
scalar OsgEarthNet.uav[21] utilizationCountOverdrawnAfterMission 0
scalar OsgEarthNet.uav[21] utilizationCountIdleState 1
scalar OsgEarthNet.uav[21] utilizationFail 0
scalar OsgEarthNet.uav[21] simulationTime 259200
scalar OsgEarthNet.uav[22] utilizationSecMission 39377.620578745
scalar OsgEarthNet.uav[22] utilizationSecMaintenance 27391.333708284
scalar OsgEarthNet.uav[22] utilizationSecCharge 191889.04371297
scalar OsgEarthNet.uav[22] utilizationSecIdle 542.001
scalar OsgEarthNet.uav[22] utilizationEnergyMission 191956.36107254
scalar OsgEarthNet.uav[22] utilizationEnergyMaintenance 128736.51375198
scalar OsgEarthNet.uav[22] utilizationEnergyCharge 318543.3807373
scalar OsgEarthNet.uav[22] utilizationEnergyOverdrawMission 0
scalar OsgEarthNet.uav[22] utilizationEnergyOverdrawMaintenance 0
scalar OsgEarthNet.uav[22] utilizationCountMissions 78
scalar OsgEarthNet.uav[22] utilizationCountManeuversMission 1355
scalar OsgEarthNet.uav[22] utilizationCountManeuversMaintenance 156
scalar OsgEarthNet.uav[22] utilizationCountChargeState 78
scalar OsgEarthNet.uav[22] utilizationCountOverdrawnAfterMission 0
scalar OsgEarthNet.uav[22] utilizationCountIdleState 1
scalar OsgEarthNet.uav[22] utilizationFail 0
scalar OsgEarthNet.uav[22] simulationTime 259200
scalar OsgEarthNet.uav[23] utilizationSecMission 45609.682087554
scalar OsgEarthNet.uav[23] utilizationSecMaintenance 21756.564606459
scalar OsgEarthNet.uav[23] utilizationSecCharge 189860
scalar OsgEarthNet.uav[23] utilizationSecIdle 1973.7523059873
scalar OsgEarthNet.uav[23] utilizationEnergyMission 220505.18938359
scalar OsgEarthNet.uav[23] utilizationEnergyMaintenance 101007.42282486
scalar OsgEarthNet.uav[23] utilizationEnergyCharge 317812.26586914
scalar OsgEarthNet.uav[23] utilizationEnergyOverdrawMission 0
scalar OsgEarthNet.uav[23] utilizationEnergyOverdrawMaintenance 0
scalar OsgEarthNet.uav[23] utilizationCountMissions 73
scalar OsgEarthNet.uav[23] utilizationCountManeuversMission 1308
scalar OsgEarthNet.uav[23] utilizationCountManeuversMaintenance 147
scalar OsgEarthNet.uav[23] utilizationCountChargeState 73
scalar OsgEarthNet.uav[23] utilizationCountOverdrawnAfterMission 0
scalar OsgEarthNet.uav[23] utilizationCountIdleState 1
scalar OsgEarthNet.uav[23] utilizationFail 0
scalar OsgEarthNet.uav[23] simulationTime 259200
scalar OsgEarthNet.uav[24] utilizationSecMission 40484.089263199
scalar OsgEarthNet.uav[24] utilizationSecMaintenance 26323.904736801
scalar OsgEarthNet.uav[24] utilizationSecCharge 189690
scalar OsgEarthNet.uav[24] utilizationSecIdle 2702.005
scalar OsgEarthNet.uav[24] utilizationEnergyMission 195846.49986325
scalar OsgEarthNet.uav[24] utilizationEnergyMaintenance 124637.12612152
scalar OsgEarthNet.uav[24] utilizationEnergyCharge 317942.95288086
scalar OsgEarthNet.uav[24] utilizationEnergyOverdrawMission 0
scalar OsgEarthNet.uav[24] utilizationEnergyOverdrawMaintenance 0
scalar OsgEarthNet.uav[24] utilizationCountMissions 75
scalar OsgEarthNet.uav[24] utilizationCountManeuversMission 1169
scalar OsgEarthNet.uav[24] utilizationCountManeuversMaintenance 151
scalar OsgEarthNet.uav[24] utilizationCountChargeState 75
scalar OsgEarthNet.uav[24] utilizationCountOverdrawnAfterMission 0
scalar OsgEarthNet.uav[24] utilizationCountIdleState 1
scalar OsgEarthNet.uav[24] utilizationFail 0
scalar OsgEarthNet.uav[24] simulationTime 259200
scalar OsgEarthNet.uav[25] utilizationSecMission 40541.892036294
scalar OsgEarthNet.uav[25] utilizationSecMaintenance 26296.106963706
scalar OsgEarthNet.uav[25] utilizationSecCharge 192360
scalar OsgEarthNet.uav[25] utilizationSecIdle 2
scalar OsgEarthNet.uav[25] utilizationEnergyMission 198356.16134731
scalar OsgEarthNet.uav[25] utilizationEnergyMaintenance 123585.38211252
scalar OsgEarthNet.uav[25] utilizationEnergyCharge 318721.99047852
scalar OsgEarthNet.uav[25] utilizationEnergyOverdrawMission 0
scalar OsgEarthNet.uav[25] utilizationEnergyOverdrawMaintenance 0
scalar OsgEarthNet.uav[25] utilizationCountMissions 76
scalar OsgEarthNet.uav[25] utilizationCountManeuversMission 1270
scalar OsgEarthNet.uav[25] utilizationCountManeuversMaintenance 152
scalar OsgEarthNet.uav[25] utilizationCountChargeState 76
scalar OsgEarthNet.uav[25] utilizationCountOverdrawnAfterMission 0
scalar OsgEarthNet.uav[25] utilizationCountIdleState 1
scalar OsgEarthNet.uav[25] utilizationFail 0
scalar OsgEarthNet.uav[25] simulationTime 259200
scalar OsgEarthNet.uav[26] utilizationSecMission 42529.400012464
scalar OsgEarthNet.uav[26] utilizationSecMaintenance 25390.179901427
scalar OsgEarthNet.uav[26] utilizationSecCharge 191278.41908611
scalar OsgEarthNet.uav[26] utilizationSecIdle 2
scalar OsgEarthNet.uav[26] utilizationEnergyMission 209810.60579681
scalar OsgEarthNet.uav[26] utilizationEnergyMaintenance 117215.62449646
scalar OsgEarthNet.uav[26] utilizationEnergyCharge 320900.15350342
scalar OsgEarthNet.uav[26] utilizationEnergyOverdrawMission 0
scalar OsgEarthNet.uav[26] utilizationEnergyOverdrawMaintenance 0
scalar OsgEarthNet.uav[26] utilizationCountMissions 77
scalar OsgEarthNet.uav[26] utilizationCountManeuversMission 1514
scalar OsgEarthNet.uav[26] utilizationCountManeuversMaintenance 154
scalar OsgEarthNet.uav[26] utilizationCountChargeState 77
scalar OsgEarthNet.uav[26] utilizationCountOverdrawnAfterMission 0
scalar OsgEarthNet.uav[26] utilizationCountIdleState 1
scalar OsgEarthNet.uav[26] utilizationFail 0
scalar OsgEarthNet.uav[26] simulationTime 259200
scalar OsgEarthNet.uav[27] utilizationSecMission 40007.922552586
scalar OsgEarthNet.uav[27] utilizationSecMaintenance 26484.093011021
scalar OsgEarthNet.uav[27] utilizationSecCharge 191645.98143639
scalar OsgEarthNet.uav[27] utilizationSecIdle 1062.002
scalar OsgEarthNet.uav[27] utilizationEnergyMission 197018.53482437
scalar OsgEarthNet.uav[27] utilizationEnergyMaintenance 123858.29135895
scalar OsgEarthNet.uav[27] utilizationEnergyCharge 315467.48901367
scalar OsgEarthNet.uav[27] utilizationEnergyOverdrawMission 0
scalar OsgEarthNet.uav[27] utilizationEnergyOverdrawMaintenance 0
scalar OsgEarthNet.uav[27] utilizationCountMissions 77
scalar OsgEarthNet.uav[27] utilizationCountManeuversMission 1354
scalar OsgEarthNet.uav[27] utilizationCountManeuversMaintenance 154
scalar OsgEarthNet.uav[27] utilizationCountChargeState 77
scalar OsgEarthNet.uav[27] utilizationCountOverdrawnAfterMission 0
scalar OsgEarthNet.uav[27] utilizationCountIdleState 1
scalar OsgEarthNet.uav[27] utilizationFail 0
scalar OsgEarthNet.uav[27] simulationTime 259200
scalar OsgEarthNet.uav[28] utilizationSecMission 43742.305531494
scalar OsgEarthNet.uav[28] utilizationSecMaintenance 23247.576603302
scalar OsgEarthNet.uav[28] utilizationSecCharge 191548.1158652
scalar OsgEarthNet.uav[28] utilizationSecIdle 662.001
scalar OsgEarthNet.uav[28] utilizationEnergyMission 212310.82171249
scalar OsgEarthNet.uav[28] utilizationEnergyMaintenance 109105.93757629
scalar OsgEarthNet.uav[28] utilizationEnergyCharge 317451.30090332
scalar OsgEarthNet.uav[28] utilizationEnergyOverdrawMission 0
scalar OsgEarthNet.uav[28] utilizationEnergyOverdrawMaintenance 0
scalar OsgEarthNet.uav[28] utilizationCountMissions 75
scalar OsgEarthNet.uav[28] utilizationCountManeuversMission 1398
scalar OsgEarthNet.uav[28] utilizationCountManeuversMaintenance 150
scalar OsgEarthNet.uav[28] utilizationCountChargeState 75
scalar OsgEarthNet.uav[28] utilizationCountOverdrawnAfterMission 0
scalar OsgEarthNet.uav[28] utilizationCountIdleState 1
scalar OsgEarthNet.uav[28] utilizationFail 0
scalar OsgEarthNet.uav[28] simulationTime 259200
scalar OsgEarthNet.uav[29] utilizationSecMission 40214.065124561
scalar OsgEarthNet.uav[29] utilizationSecMaintenance 26282.493622215
scalar OsgEarthNet.uav[29] utilizationSecCharge 189757.11187379
scalar OsgEarthNet.uav[29] utilizationSecIdle 2946.3283794327
scalar OsgEarthNet.uav[29] utilizationEnergyMission 192880.46987534
scalar OsgEarthNet.uav[29] utilizationEnergyMaintenance 124338.23537827
scalar OsgEarthNet.uav[29] utilizationEnergyCharge 314523.18273926
scalar OsgEarthNet.uav[29] utilizationEnergyOverdrawMission 0
scalar OsgEarthNet.uav[29] utilizationEnergyOverdrawMaintenance 0
scalar OsgEarthNet.uav[29] utilizationCountMissions 76
scalar OsgEarthNet.uav[29] utilizationCountManeuversMission 1192
scalar OsgEarthNet.uav[29] utilizationCountManeuversMaintenance 152
scalar OsgEarthNet.uav[29] utilizationCountChargeState 76
scalar OsgEarthNet.uav[29] utilizationCountOverdrawnAfterMission 0
scalar OsgEarthNet.uav[29] utilizationCountIdleState 1
scalar OsgEarthNet.uav[29] utilizationFail 0
scalar OsgEarthNet.uav[29] simulationTime 259200
scalar OsgEarthNet.uav[30] utilizationSecMission 43683.210340953
scalar OsgEarthNet.uav[30] utilizationSecMaintenance 23423.534792468
scalar OsgEarthNet.uav[30] utilizationSecCharge 190627.08079653
scalar OsgEarthNet.uav[30] utilizationSecIdle 1466.1730700472
scalar OsgEarthNet.uav[30] utilizationEnergyMission 210386.55472946
scalar OsgEarthNet.uav[30] utilizationEnergyMaintenance 109585.76681519
scalar OsgEarthNet.uav[30] utilizationEnergyCharge 317326.08520508
scalar OsgEarthNet.uav[30] utilizationEnergyOverdrawMission 0
scalar OsgEarthNet.uav[30] utilizationEnergyOverdrawMaintenance 0
scalar OsgEarthNet.uav[30] utilizationCountMissions 75
scalar OsgEarthNet.uav[30] utilizationCountManeuversMission 1397
scalar OsgEarthNet.uav[30] utilizationCountManeuversMaintenance 150
scalar OsgEarthNet.uav[30] utilizationCountChargeState 75
scalar OsgEarthNet.uav[30] utilizationCountOverdrawnAfterMission 0
scalar OsgEarthNet.uav[30] utilizationCountIdleState 1
scalar OsgEarthNet.uav[30] utilizationFail 0
scalar OsgEarthNet.uav[30] simulationTime 259200
scalar OsgEarthNet.uav[31] utilizationSecMission 43946.139265518
scalar OsgEarthNet.uav[31] utilizationSecMaintenance 23326.499702107
scalar OsgEarthNet.uav[31] utilizationSecCharge 189716.74299303
scalar OsgEarthNet.uav[31] utilizationSecIdle 2210.6170393477
scalar OsgEarthNet.uav[31] utilizationEnergyMission 213759.17232513
scalar OsgEarthNet.uav[31] utilizationEnergyMaintenance 108461.16357803
scalar OsgEarthNet.uav[31] utilizationEnergyCharge 315486.51391602
scalar OsgEarthNet.uav[31] utilizationEnergyOverdrawMission 0
scalar OsgEarthNet.uav[31] utilizationEnergyOverdrawMaintenance 0
scalar OsgEarthNet.uav[31] utilizationCountMissions 75
scalar OsgEarthNet.uav[31] utilizationCountManeuversMission 1281
scalar OsgEarthNet.uav[31] utilizationCountManeuversMaintenance 150
scalar OsgEarthNet.uav[31] utilizationCountChargeState 75
scalar OsgEarthNet.uav[31] utilizationCountOverdrawnAfterMission 0
scalar OsgEarthNet.uav[31] utilizationCountIdleState 1
scalar OsgEarthNet.uav[31] utilizationFail 0
scalar OsgEarthNet.uav[31] simulationTime 259200
scalar OsgEarthNet.uav[32] utilizationSecMission 42843.552613862
scalar OsgEarthNet.uav[32] utilizationSecMaintenance 23674.443386138
scalar OsgEarthNet.uav[32] utilizationSecCharge 190760
scalar OsgEarthNet.uav[32] utilizationSecIdle 1922.003
scalar OsgEarthNet.uav[32] utilizationEnergyMission 205096.43091315
scalar OsgEarthNet.uav[32] utilizationEnergyMaintenance 110850.42685699
scalar OsgEarthNet.uav[32] utilizationEnergyCharge 310854.50683594
scalar OsgEarthNet.uav[32] utilizationEnergyOverdrawMission 0
scalar OsgEarthNet.uav[32] utilizationEnergyOverdrawMaintenance 0
scalar OsgEarthNet.uav[32] utilizationCountMissions 74
scalar OsgEarthNet.uav[32] utilizationCountManeuversMission 1242
scalar OsgEarthNet.uav[32] utilizationCountManeuversMaintenance 149
scalar OsgEarthNet.uav[32] utilizationCountChargeState 74
scalar OsgEarthNet.uav[32] utilizationCountOverdrawnAfterMission 0
scalar OsgEarthNet.uav[32] utilizationCountIdleState 1
scalar OsgEarthNet.uav[32] utilizationFail 0
scalar OsgEarthNet.uav[32] simulationTime 259200
scalar OsgEarthNet.uav[33] utilizationSecMission 42896.976307248
scalar OsgEarthNet.uav[33] utilizationSecMaintenance 23474.761594381
scalar OsgEarthNet.uav[33] utilizationSecCharge 189966.11538621
scalar OsgEarthNet.uav[33] utilizationSecIdle 2862.1457121661
scalar OsgEarthNet.uav[33] utilizationEnergyMission 206141.60818863
scalar OsgEarthNet.uav[33] utilizationEnergyMaintenance 109924.48235321
scalar OsgEarthNet.uav[33] utilizationEnergyCharge 315252.80273438
scalar OsgEarthNet.uav[33] utilizationEnergyOverdrawMission 0
scalar OsgEarthNet.uav[33] utilizationEnergyOverdrawMaintenance 0
scalar OsgEarthNet.uav[33] utilizationCountMissions 75
scalar OsgEarthNet.uav[33] utilizationCountManeuversMission 1212
scalar OsgEarthNet.uav[33] utilizationCountManeuversMaintenance 150
scalar OsgEarthNet.uav[33] utilizationCountChargeState 75
scalar OsgEarthNet.uav[33] utilizationCountOverdrawnAfterMission 0
scalar OsgEarthNet.uav[33] utilizationCountIdleState 1
scalar OsgEarthNet.uav[33] utilizationFail 0
scalar OsgEarthNet.uav[33] simulationTime 259200
scalar OsgEarthNet.uav[34] utilizationSecMission 40984.078570725
scalar OsgEarthNet.uav[34] utilizationSecMaintenance 26047.832394597
scalar OsgEarthNet.uav[34] utilizationSecCharge 190566.08503468
scalar OsgEarthNet.uav[34] utilizationSecIdle 1602.003
scalar OsgEarthNet.uav[34] utilizationEnergyMission 201416.7730751
scalar OsgEarthNet.uav[34] utilizationEnergyMaintenance 121835.84292221
scalar OsgEarthNet.uav[34] utilizationEnergyCharge 321910.91674805
scalar OsgEarthNet.uav[34] utilizationEnergyOverdrawMission 0
scalar OsgEarthNet.uav[34] utilizationEnergyOverdrawMaintenance 0
scalar OsgEarthNet.uav[34] utilizationCountMissions 77
scalar OsgEarthNet.uav[34] utilizationCountManeuversMission 1438
scalar OsgEarthNet.uav[34] utilizationCountManeuversMaintenance 154
scalar OsgEarthNet.uav[34] utilizationCountChargeState 77
scalar OsgEarthNet.uav[34] utilizationCountOverdrawnAfterMission 0
scalar OsgEarthNet.uav[34] utilizationCountIdleState 1
scalar OsgEarthNet.uav[34] utilizationFail 0
scalar OsgEarthNet.uav[34] simulationTime 259200
scalar OsgEarthNet.uav[35] utilizationSecMission 47070.097187301
scalar OsgEarthNet.uav[35] utilizationSecMaintenance 19592.367749365
scalar OsgEarthNet.uav[35] utilizationSecCharge 192535.53406333
scalar OsgEarthNet.uav[35] utilizationSecIdle 2
scalar OsgEarthNet.uav[35] utilizationEnergyMission 225941.27846909
scalar OsgEarthNet.uav[35] utilizationEnergyMaintenance 91002.806854248
scalar OsgEarthNet.uav[35] utilizationEnergyCharge 316463.79516602
scalar OsgEarthNet.uav[35] utilizationEnergyOverdrawMission 0
scalar OsgEarthNet.uav[35] utilizationEnergyOverdrawMaintenance 0
scalar OsgEarthNet.uav[35] utilizationCountMissions 72
scalar OsgEarthNet.uav[35] utilizationCountManeuversMission 1278
scalar OsgEarthNet.uav[35] utilizationCountManeuversMaintenance 144
scalar OsgEarthNet.uav[35] utilizationCountChargeState 72
scalar OsgEarthNet.uav[35] utilizationCountOverdrawnAfterMission 0
scalar OsgEarthNet.uav[35] utilizationCountIdleState 1
scalar OsgEarthNet.uav[35] utilizationFail 0
scalar OsgEarthNet.uav[35] simulationTime 259200
scalar OsgEarthNet.uav[36] utilizationSecMission 45969.370334686
scalar OsgEarthNet.uav[36] utilizationSecMaintenance 20620.18918383
scalar OsgEarthNet.uav[36] utilizationSecCharge 190593.79171795
scalar OsgEarthNet.uav[36] utilizationSecIdle 2016.6477635348
scalar OsgEarthNet.uav[36] utilizationEnergyMission 223160.03564072
scalar OsgEarthNet.uav[36] utilizationEnergyMaintenance 96158.792575836
scalar OsgEarthNet.uav[36] utilizationEnergyCharge 316470.96020508
scalar OsgEarthNet.uav[36] utilizationEnergyOverdrawMission 0
scalar OsgEarthNet.uav[36] utilizationEnergyOverdrawMaintenance 0
scalar OsgEarthNet.uav[36] utilizationCountMissions 73
scalar OsgEarthNet.uav[36] utilizationCountManeuversMission 1347
scalar OsgEarthNet.uav[36] utilizationCountManeuversMaintenance 146
scalar OsgEarthNet.uav[36] utilizationCountChargeState 73
scalar OsgEarthNet.uav[36] utilizationCountOverdrawnAfterMission 0
scalar OsgEarthNet.uav[36] utilizationCountIdleState 1
scalar OsgEarthNet.uav[36] utilizationFail 0
scalar OsgEarthNet.uav[36] simulationTime 259200
scalar OsgEarthNet.uav[37] utilizationSecMission 41137.900858984
scalar OsgEarthNet.uav[37] utilizationSecMaintenance 25730.098141016
scalar OsgEarthNet.uav[37] utilizationSecCharge 192330
scalar OsgEarthNet.uav[37] utilizationSecIdle 2
scalar OsgEarthNet.uav[37] utilizationEnergyMission 199251.64118576
scalar OsgEarthNet.uav[37] utilizationEnergyMaintenance 119692.93014733
scalar OsgEarthNet.uav[37] utilizationEnergyCharge 317120.56835938
scalar OsgEarthNet.uav[37] utilizationEnergyOverdrawMission 0
scalar OsgEarthNet.uav[37] utilizationEnergyOverdrawMaintenance 0
scalar OsgEarthNet.uav[37] utilizationCountMissions 77
scalar OsgEarthNet.uav[37] utilizationCountManeuversMission 1240
scalar OsgEarthNet.uav[37] utilizationCountManeuversMaintenance 155
scalar OsgEarthNet.uav[37] utilizationCountChargeState 77
scalar OsgEarthNet.uav[37] utilizationCountOverdrawnAfterMission 0
scalar OsgEarthNet.uav[37] utilizationCountIdleState 1
scalar OsgEarthNet.uav[37] utilizationFail 0
scalar OsgEarthNet.uav[37] simulationTime 259200
scalar OsgEarthNet.uav[38] utilizationSecMission 41417.406842797
scalar OsgEarthNet.uav[38] utilizationSecMaintenance 25536.124006569
scalar OsgEarthNet.uav[38] utilizationSecCharge 192244.46815063
scalar OsgEarthNet.uav[38] utilizationSecIdle 2
scalar OsgEarthNet.uav[38] utilizationEnergyMission 203104.48597717
scalar OsgEarthNet.uav[38] utilizationEnergyMaintenance 119927.58013535
scalar OsgEarthNet.uav[38] utilizationEnergyCharge 317589.87451172
scalar OsgEarthNet.uav[38] utilizationEnergyOverdrawMission 0
scalar OsgEarthNet.uav[38] utilizationEnergyOverdrawMaintenance 0
scalar OsgEarthNet.uav[38] utilizationCountMissions 76
scalar OsgEarthNet.uav[38] utilizationCountManeuversMission 1341
scalar OsgEarthNet.uav[38] utilizationCountManeuversMaintenance 152
scalar OsgEarthNet.uav[38] utilizationCountChargeState 76
scalar OsgEarthNet.uav[38] utilizationCountOverdrawnAfterMission 0
scalar OsgEarthNet.uav[38] utilizationCountIdleState 1
scalar OsgEarthNet.uav[38] utilizationFail 0
scalar OsgEarthNet.uav[38] simulationTime 259200
scalar OsgEarthNet.uav[39] utilizationSecMission 41376.412992084
scalar OsgEarthNet.uav[39] utilizationSecMaintenance 24818.96492216
scalar OsgEarthNet.uav[39] utilizationSecCharge 190450
scalar OsgEarthNet.uav[39] utilizationSecIdle 2554.6210857569
scalar OsgEarthNet.uav[39] utilizationEnergyMission 199492.09620056
scalar OsgEarthNet.uav[39] utilizationEnergyMaintenance 116280.09191132
scalar OsgEarthNet.uav[39] utilizationEnergyCharge 315513.7277832
scalar OsgEarthNet.uav[39] utilizationEnergyOverdrawMission 0
scalar OsgEarthNet.uav[39] utilizationEnergyOverdrawMaintenance 0
scalar OsgEarthNet.uav[39] utilizationCountMissions 75
scalar OsgEarthNet.uav[39] utilizationCountManeuversMission 1311
scalar OsgEarthNet.uav[39] utilizationCountManeuversMaintenance 151
scalar OsgEarthNet.uav[39] utilizationCountChargeState 75
scalar OsgEarthNet.uav[39] utilizationCountOverdrawnAfterMission 0
scalar OsgEarthNet.uav[39] utilizationCountIdleState 1
scalar OsgEarthNet.uav[39] utilizationFail 0
scalar OsgEarthNet.uav[39] simulationTime 259200
scalar OsgEarthNet.uav[40] utilizationSecMission 45599.340774796
scalar OsgEarthNet.uav[40] utilizationSecMaintenance 20861.17549427
scalar OsgEarthNet.uav[40] utilizationSecCharge 189950
scalar OsgEarthNet.uav[40] utilizationSecIdle 2789.4827309343
scalar OsgEarthNet.uav[40] utilizationEnergyMission 219548.51893234
scalar OsgEarthNet.uav[40] utilizationEnergyMaintenance 97455.116479266
scalar OsgEarthNet.uav[40] utilizationEnergyCharge 315185.38110352
scalar OsgEarthNet.uav[40] utilizationEnergyOverdrawMission 0
scalar OsgEarthNet.uav[40] utilizationEnergyOverdrawMaintenance 0
scalar OsgEarthNet.uav[40] utilizationCountMissions 72
scalar OsgEarthNet.uav[40] utilizationCountManeuversMission 1337
scalar OsgEarthNet.uav[40] utilizationCountManeuversMaintenance 145
scalar OsgEarthNet.uav[40] utilizationCountChargeState 72
scalar OsgEarthNet.uav[40] utilizationCountOverdrawnAfterMission 0
scalar OsgEarthNet.uav[40] utilizationCountIdleState 1
scalar OsgEarthNet.uav[40] utilizationFail 0
scalar OsgEarthNet.uav[40] simulationTime 259200
scalar OsgEarthNet.uav[41] utilizationSecMission 42610.730538827
scalar OsgEarthNet.uav[41] utilizationSecMaintenance 23807.264461173
scalar OsgEarthNet.uav[41] utilizationSecCharge 190620
scalar OsgEarthNet.uav[41] utilizationSecIdle 2162.004
scalar OsgEarthNet.uav[41] utilizationEnergyMission 209206.65636063
scalar OsgEarthNet.uav[41] utilizationEnergyMaintenance 111368.1738564
scalar OsgEarthNet.uav[41] utilizationEnergyCharge 313605.83178711
scalar OsgEarthNet.uav[41] utilizationEnergyOverdrawMission 0
scalar OsgEarthNet.uav[41] utilizationEnergyOverdrawMaintenance 0
scalar OsgEarthNet.uav[41] utilizationCountMissions 75
scalar OsgEarthNet.uav[41] utilizationCountManeuversMission 1301
scalar OsgEarthNet.uav[41] utilizationCountManeuversMaintenance 150
scalar OsgEarthNet.uav[41] utilizationCountChargeState 74
scalar OsgEarthNet.uav[41] utilizationCountOverdrawnAfterMission 0
scalar OsgEarthNet.uav[41] utilizationCountIdleState 1
scalar OsgEarthNet.uav[41] utilizationFail 0
scalar OsgEarthNet.uav[41] simulationTime 259200
scalar OsgEarthNet.uav[42] utilizationSecMission 46708.431562564
scalar OsgEarthNet.uav[42] utilizationSecMaintenance 20489.565437437
scalar OsgEarthNet.uav[42] utilizationSecCharge 190700
scalar OsgEarthNet.uav[42] utilizationSecIdle 1302.002
scalar OsgEarthNet.uav[42] utilizationEnergyMission 222263.31790725
scalar OsgEarthNet.uav[42] utilizationEnergyMaintenance 94549.503219604
scalar OsgEarthNet.uav[42] utilizationEnergyCharge 317020.97900391
scalar OsgEarthNet.uav[42] utilizationEnergyOverdrawMission 0
scalar OsgEarthNet.uav[42] utilizationEnergyOverdrawMaintenance 0
scalar OsgEarthNet.uav[42] utilizationCountMissions 72
scalar OsgEarthNet.uav[42] utilizationCountManeuversMission 1304
scalar OsgEarthNet.uav[42] utilizationCountManeuversMaintenance 145
scalar OsgEarthNet.uav[42] utilizationCountChargeState 72
scalar OsgEarthNet.uav[42] utilizationCountOverdrawnAfterMission 0
scalar OsgEarthNet.uav[42] utilizationCountIdleState 1
scalar OsgEarthNet.uav[42] utilizationFail 0
scalar OsgEarthNet.uav[42] simulationTime 259200
scalar OsgEarthNet.uav[43] utilizationSecMission 40816.509258602
scalar OsgEarthNet.uav[43] utilizationSecMaintenance 26521.489741398
scalar OsgEarthNet.uav[43] utilizationSecCharge 191860
scalar OsgEarthNet.uav[43] utilizationSecIdle 2
scalar OsgEarthNet.uav[43] utilizationEnergyMission 201281.4184372
scalar OsgEarthNet.uav[43] utilizationEnergyMaintenance 125535.99496078
scalar OsgEarthNet.uav[43] utilizationEnergyCharge 322694.19091797
scalar OsgEarthNet.uav[43] utilizationEnergyOverdrawMission 0
scalar OsgEarthNet.uav[43] utilizationEnergyOverdrawMaintenance 0
scalar OsgEarthNet.uav[43] utilizationCountMissions 76
scalar OsgEarthNet.uav[43] utilizationCountManeuversMission 1317
scalar OsgEarthNet.uav[43] utilizationCountManeuversMaintenance 152
scalar OsgEarthNet.uav[43] utilizationCountChargeState 76
scalar OsgEarthNet.uav[43] utilizationCountOverdrawnAfterMission 0
scalar OsgEarthNet.uav[43] utilizationCountIdleState 1
scalar OsgEarthNet.uav[43] utilizationFail 0
scalar OsgEarthNet.uav[43] simulationTime 259200
scalar OsgEarthNet.uav[44] utilizationSecMission 35771.231080064
scalar OsgEarthNet.uav[44] utilizationSecMaintenance 30349.065498379
scalar OsgEarthNet.uav[44] utilizationSecCharge 191081.70257089
scalar OsgEarthNet.uav[44] utilizationSecIdle 1997.9998506628
scalar OsgEarthNet.uav[44] utilizationEnergyMission 176537.24803925
scalar OsgEarthNet.uav[44] utilizationEnergyMaintenance 143151.57731628
scalar OsgEarthNet.uav[44] utilizationEnergyCharge 318577.93823242
scalar OsgEarthNet.uav[44] utilizationEnergyOverdrawMission 0
scalar OsgEarthNet.uav[44] utilizationEnergyOverdrawMaintenance 0
scalar OsgEarthNet.uav[44] utilizationCountMissions 79
scalar OsgEarthNet.uav[44] utilizationCountManeuversMission 1278
scalar OsgEarthNet.uav[44] utilizationCountManeuversMaintenance 158
scalar OsgEarthNet.uav[44] utilizationCountChargeState 79
scalar OsgEarthNet.uav[44] utilizationCountOverdrawnAfterMission 0
scalar OsgEarthNet.uav[44] utilizationCountIdleState 1
scalar OsgEarthNet.uav[44] utilizationFail 0
scalar OsgEarthNet.uav[44] simulationTime 259200
scalar OsgEarthNet.uav[45] utilizationSecMission 42018.382601454
scalar OsgEarthNet.uav[45] utilizationSecMaintenance 25303.453531604
scalar OsgEarthNet.uav[45] utilizationSecCharge 190514.47968034
scalar OsgEarthNet.uav[45] utilizationSecIdle 1363.683186602
scalar OsgEarthNet.uav[45] utilizationEnergyMission 204204.48922348
scalar OsgEarthNet.uav[45] utilizationEnergyMaintenance 119144.68041992
scalar OsgEarthNet.uav[45] utilizationEnergyCharge 318019.60406494
scalar OsgEarthNet.uav[45] utilizationEnergyOverdrawMission 0
scalar OsgEarthNet.uav[45] utilizationEnergyOverdrawMaintenance 0
scalar OsgEarthNet.uav[45] utilizationCountMissions 77
scalar OsgEarthNet.uav[45] utilizationCountManeuversMission 1276
scalar OsgEarthNet.uav[45] utilizationCountManeuversMaintenance 154
scalar OsgEarthNet.uav[45] utilizationCountChargeState 77
scalar OsgEarthNet.uav[45] utilizationCountOverdrawnAfterMission 0
scalar OsgEarthNet.uav[45] utilizationCountIdleState 1
scalar OsgEarthNet.uav[45] utilizationFail 0
scalar OsgEarthNet.uav[45] simulationTime 259200
scalar OsgEarthNet.uav[46] utilizationSecMission 42159.92707842
scalar OsgEarthNet.uav[46] utilizationSecMaintenance 23348.491652408
scalar OsgEarthNet.uav[46] utilizationSecCharge 191390
scalar OsgEarthNet.uav[46] utilizationSecIdle 2301.5802691718
scalar OsgEarthNet.uav[46] utilizationEnergyMission 203314.39505567
scalar OsgEarthNet.uav[46] utilizationEnergyMaintenance 109655.04022217
scalar OsgEarthNet.uav[46] utilizationEnergyCharge 310018.00634766
scalar OsgEarthNet.uav[46] utilizationEnergyOverdrawMission 0
scalar OsgEarthNet.uav[46] utilizationEnergyOverdrawMaintenance 0
scalar OsgEarthNet.uav[46] utilizationCountMissions 75
scalar OsgEarthNet.uav[46] utilizationCountManeuversMission 1220
scalar OsgEarthNet.uav[46] utilizationCountManeuversMaintenance 151
scalar OsgEarthNet.uav[46] utilizationCountChargeState 75
scalar OsgEarthNet.uav[46] utilizationCountOverdrawnAfterMission 0
scalar OsgEarthNet.uav[46] utilizationCountIdleState 1
scalar OsgEarthNet.uav[46] utilizationFail 0
scalar OsgEarthNet.uav[46] simulationTime 259200
scalar OsgEarthNet.uav[47] utilizationSecMission 40071.843548958
scalar OsgEarthNet.uav[47] utilizationSecMaintenance 26404.299475499
scalar OsgEarthNet.uav[47] utilizationSecCharge 190858.41488685
scalar OsgEarthNet.uav[47] utilizationSecIdle 1865.4410886909
scalar OsgEarthNet.uav[47] utilizationEnergyMission 193863.21560669
scalar OsgEarthNet.uav[47] utilizationEnergyMaintenance 124374.14648056
scalar OsgEarthNet.uav[47] utilizationEnergyCharge 314642.95410156
scalar OsgEarthNet.uav[47] utilizationEnergyOverdrawMission 0
scalar OsgEarthNet.uav[47] utilizationEnergyOverdrawMaintenance 0
scalar OsgEarthNet.uav[47] utilizationCountMissions 77
scalar OsgEarthNet.uav[47] utilizationCountManeuversMission 1232
scalar OsgEarthNet.uav[47] utilizationCountManeuversMaintenance 154
scalar OsgEarthNet.uav[47] utilizationCountChargeState 77
scalar OsgEarthNet.uav[47] utilizationCountOverdrawnAfterMission 0
scalar OsgEarthNet.uav[47] utilizationCountIdleState 1
scalar OsgEarthNet.uav[47] utilizationFail 0
scalar OsgEarthNet.uav[47] simulationTime 259200
scalar OsgEarthNet.uav[48] utilizationSecMission 42288.183596916
scalar OsgEarthNet.uav[48] utilizationSecMaintenance 23745.248283679
scalar OsgEarthNet.uav[48] utilizationSecCharge 192124.5651194
scalar OsgEarthNet.uav[48] utilizationSecIdle 1042.002
scalar OsgEarthNet.uav[48] utilizationEnergyMission 204371.39347076
scalar OsgEarthNet.uav[48] utilizationEnergyMaintenance 110705.18635941
scalar OsgEarthNet.uav[48] utilizationEnergyCharge 316101.3605957
scalar OsgEarthNet.uav[48] utilizationEnergyOverdrawMission 0
scalar OsgEarthNet.uav[48] utilizationEnergyOverdrawMaintenance 0
scalar OsgEarthNet.uav[48] utilizationCountMissions 75
scalar OsgEarthNet.uav[48] utilizationCountManeuversMission 1346
scalar OsgEarthNet.uav[48] utilizationCountManeuversMaintenance 150
scalar OsgEarthNet.uav[48] utilizationCountChargeState 75
scalar OsgEarthNet.uav[48] utilizationCountOverdrawnAfterMission 0
scalar OsgEarthNet.uav[48] utilizationCountIdleState 1
scalar OsgEarthNet.uav[48] utilizationFail 0
scalar OsgEarthNet.uav[48] simulationTime 259200
scalar OsgEarthNet.uav[49] utilizationSecMission 40092.514404584
scalar OsgEarthNet.uav[49] utilizationSecMaintenance 26857.730815477
scalar OsgEarthNet.uav[49] utilizationSecCharge 189467.74777994
scalar OsgEarthNet.uav[49] utilizationSecIdle 2782.006
scalar OsgEarthNet.uav[49] utilizationEnergyMission 194284.20811844
scalar OsgEarthNet.uav[49] utilizationEnergyMaintenance 126796.53015518
scalar OsgEarthNet.uav[49] utilizationEnergyCharge 317385.03845215
scalar OsgEarthNet.uav[49] utilizationEnergyOverdrawMission 0
scalar OsgEarthNet.uav[49] utilizationEnergyOverdrawMaintenance 0
scalar OsgEarthNet.uav[49] utilizationCountMissions 77
scalar OsgEarthNet.uav[49] utilizationCountManeuversMission 1179
scalar OsgEarthNet.uav[49] utilizationCountManeuversMaintenance 154
scalar OsgEarthNet.uav[49] utilizationCountChargeState 77
scalar OsgEarthNet.uav[49] utilizationCountOverdrawnAfterMission 0
scalar OsgEarthNet.uav[49] utilizationCountIdleState 1
scalar OsgEarthNet.uav[49] utilizationFail 0
scalar OsgEarthNet.uav[49] simulationTime 259200
scalar OsgEarthNet.uav[50] utilizationSecMission 41630.650885044
scalar OsgEarthNet.uav[50] utilizationSecMaintenance 25677.26159272
scalar OsgEarthNet.uav[50] utilizationSecCharge 189431.13826657
scalar OsgEarthNet.uav[50] utilizationSecIdle 2460.9482556647
scalar OsgEarthNet.uav[50] utilizationEnergyMission 204139.60923767
scalar OsgEarthNet.uav[50] utilizationEnergyMaintenance 120683.01729202
scalar OsgEarthNet.uav[50] utilizationEnergyCharge 321022.637146
scalar OsgEarthNet.uav[50] utilizationEnergyOverdrawMission 0
scalar OsgEarthNet.uav[50] utilizationEnergyOverdrawMaintenance 0
scalar OsgEarthNet.uav[50] utilizationCountMissions 76
scalar OsgEarthNet.uav[50] utilizationCountManeuversMission 1383
scalar OsgEarthNet.uav[50] utilizationCountManeuversMaintenance 152
scalar OsgEarthNet.uav[50] utilizationCountChargeState 76
scalar OsgEarthNet.uav[50] utilizationCountOverdrawnAfterMission 0
scalar OsgEarthNet.uav[50] utilizationCountIdleState 1
scalar OsgEarthNet.uav[50] utilizationFail 0
scalar OsgEarthNet.uav[50] simulationTime 259200
scalar OsgEarthNet.uav[51] utilizationSecMission 42846.998040914
scalar OsgEarthNet.uav[51] utilizationSecMaintenance 23978.611676506
scalar OsgEarthNet.uav[51] utilizationSecCharge 189957.07320075
scalar OsgEarthNet.uav[51] utilizationSecIdle 2417.3160818306
scalar OsgEarthNet.uav[51] utilizationEnergyMission 208802.6781311
scalar OsgEarthNet.uav[51] utilizationEnergyMaintenance 111362.07009506
scalar OsgEarthNet.uav[51] utilizationEnergyCharge 320532.20776367
scalar OsgEarthNet.uav[51] utilizationEnergyOverdrawMission 0
scalar OsgEarthNet.uav[51] utilizationEnergyOverdrawMaintenance 0
scalar OsgEarthNet.uav[51] utilizationCountMissions 76
scalar OsgEarthNet.uav[51] utilizationCountManeuversMission 1437
scalar OsgEarthNet.uav[51] utilizationCountManeuversMaintenance 152
scalar OsgEarthNet.uav[51] utilizationCountChargeState 76
scalar OsgEarthNet.uav[51] utilizationCountOverdrawnAfterMission 0
scalar OsgEarthNet.uav[51] utilizationCountIdleState 1
scalar OsgEarthNet.uav[51] utilizationFail 0
scalar OsgEarthNet.uav[51] simulationTime 259200
scalar OsgEarthNet.uav[52] utilizationSecMission 46775.770111733
scalar OsgEarthNet.uav[52] utilizationSecMaintenance 20774.08109816
scalar OsgEarthNet.uav[52] utilizationSecCharge 190795.64984893
scalar OsgEarthNet.uav[52] utilizationSecIdle 854.49794117561
scalar OsgEarthNet.uav[52] utilizationEnergyMission 226682.39925003
scalar OsgEarthNet.uav[52] utilizationEnergyMaintenance 95982.352210999
scalar OsgEarthNet.uav[52] utilizationEnergyCharge 319205.75585938
scalar OsgEarthNet.uav[52] utilizationEnergyOverdrawMission 0
scalar OsgEarthNet.uav[52] utilizationEnergyOverdrawMaintenance 0
scalar OsgEarthNet.uav[52] utilizationCountMissions 73
scalar OsgEarthNet.uav[52] utilizationCountManeuversMission 1391
scalar OsgEarthNet.uav[52] utilizationCountManeuversMaintenance 146
scalar OsgEarthNet.uav[52] utilizationCountChargeState 73
scalar OsgEarthNet.uav[52] utilizationCountOverdrawnAfterMission 0
scalar OsgEarthNet.uav[52] utilizationCountIdleState 1
scalar OsgEarthNet.uav[52] utilizationFail 0
scalar OsgEarthNet.uav[52] simulationTime 259200
scalar OsgEarthNet.uav[53] utilizationSecMission 38212.56713242
scalar OsgEarthNet.uav[53] utilizationSecMaintenance 28048.768676032
scalar OsgEarthNet.uav[53] utilizationSecCharge 191556.66019155
scalar OsgEarthNet.uav[53] utilizationSecIdle 1382.003
scalar OsgEarthNet.uav[53] utilizationEnergyMission 184827.68683243
scalar OsgEarthNet.uav[53] utilizationEnergyMaintenance 132760.39951324
scalar OsgEarthNet.uav[53] utilizationEnergyCharge 316416.69213867
scalar OsgEarthNet.uav[53] utilizationEnergyOverdrawMission 0
scalar OsgEarthNet.uav[53] utilizationEnergyOverdrawMaintenance 0
scalar OsgEarthNet.uav[53] utilizationCountMissions 78
scalar OsgEarthNet.uav[53] utilizationCountManeuversMission 1361
scalar OsgEarthNet.uav[53] utilizationCountManeuversMaintenance 156
scalar OsgEarthNet.uav[53] utilizationCountChargeState 78
scalar OsgEarthNet.uav[53] utilizationCountOverdrawnAfterMission 0
scalar OsgEarthNet.uav[53] utilizationCountIdleState 1
scalar OsgEarthNet.uav[53] utilizationFail 0
scalar OsgEarthNet.uav[53] simulationTime 259200
scalar OsgEarthNet.uav[54] utilizationSecMission 40212.470671396
scalar OsgEarthNet.uav[54] utilizationSecMaintenance 26990.576480952
scalar OsgEarthNet.uav[54] utilizationSecCharge 191104.95034093
scalar OsgEarthNet.uav[54] utilizationSecIdle 892.00150672213
scalar OsgEarthNet.uav[54] utilizationEnergyMission 197918.30835724
scalar OsgEarthNet.uav[54] utilizationEnergyMaintenance 126716.47157669
scalar OsgEarthNet.uav[54] utilizationEnergyCharge 318054.55224609
scalar OsgEarthNet.uav[54] utilizationEnergyOverdrawMission 0
scalar OsgEarthNet.uav[54] utilizationEnergyOverdrawMaintenance 0
scalar OsgEarthNet.uav[54] utilizationCountMissions 78
scalar OsgEarthNet.uav[54] utilizationCountManeuversMission 1330
scalar OsgEarthNet.uav[54] utilizationCountManeuversMaintenance 156
scalar OsgEarthNet.uav[54] utilizationCountChargeState 78
scalar OsgEarthNet.uav[54] utilizationCountOverdrawnAfterMission 0
scalar OsgEarthNet.uav[54] utilizationCountIdleState 1
scalar OsgEarthNet.uav[54] utilizationFail 0
scalar OsgEarthNet.uav[54] simulationTime 259200
scalar OsgEarthNet.cs[0] usedPower 4542912.9204438
scalar OsgEarthNet.cs[0] chargedPower 4542912.9204438
scalar OsgEarthNet.cs[0] chargedMobileNodes 0
scalar OsgEarthNet.cs[0] reservations 1092
scalar OsgEarthNet.cs[1] usedPower 4147275.1786334
scalar OsgEarthNet.cs[1] chargedPower 4147275.1786334
scalar OsgEarthNet.cs[1] chargedMobileNodes 0
scalar OsgEarthNet.cs[1] reservations 1057
scalar OsgEarthNet.cs[2] usedPower 8756747.8847838
scalar OsgEarthNet.cs[2] chargedPower 8756747.8847838
scalar OsgEarthNet.cs[2] chargedMobileNodes 0
scalar OsgEarthNet.cs[2] reservations 2011

