version 2
run Szenario_Hotel_Gabelbach-249-20180712-07:57:55-12968
attr configname Szenario_Hotel_Gabelbach
attr datetime 20180712-07:57:55
attr experiment Szenario_Hotel_Gabelbach
attr inifile omnetpp.ini
attr iterationvars "$replM=2, $biWeight=0.35, $replSearchM=1, $numUAVs=200"
attr iterationvarsf replM=2,biWeight=0.35,replSearchM=1,numUAVs=200-
attr measurement "$replM=2, $biWeight=0.35, $replSearchM=1, $numUAVs=200"
attr network OsgEarthNet
attr processid 12968
attr repetition 9
attr replication #9
attr resultdir results
attr runnumber 249
attr seedset 249
itervar biWeight 0.35
itervar numUAVs 200
itervar replM 2
itervar replSearchM 1
param *.osgEarthScene.scene "\"Szenario_Hotel_Gabelbach.earth\""
param *.playgroundLatitude 50.6830269
param *.playgroundLongitude 10.8538055
param *.playgroundWidth 3500m
param *.playgroundHeight 3500m
param *.cs[0].posX 3537m
param *.cs[0].posY 965m
param *.cs[0].posZ 538m
param *.cs[1].posX 312m
param *.cs[1].posY 1262m
param *.cs[1].posZ 539m
param *.cs[2].posX 2185m
param *.cs[2].posY 3026m
param *.cs[2].posZ 777m
param *.cs[3].posX 10m
param *.cs[3].posY 2200m
param *.cs[3].posZ 560m
param *.cs[4].posX 750m
param *.cs[4].posY 200m
param *.cs[4].posZ 540m
param *.cs[5].posX 2450m
param *.cs[5].posY 180m
param *.cs[5].posZ 524m
param *.cs[6].posX 3140m
param *.cs[6].posY 1790m
param *.cs[6].posZ 606m
param *.numCSs 3
param *.uav[*].replacementMethod 2
param *.uav[*].weightedSumWeight 0.35
param *.missionControl.replacementSearchMethod 1
param *.numUAVs 200
param *.numCSs 3
param *.numUAVs 100
param *.*.timeStep 10s
param *.uav[*].commandPreviewCommandCount 20
param *.missionControl.missionFiles "\"missions\\\\Szenario_WB_Hotel_Gabelbach_Mission_Hotel.waypoints,missions\\\\Szenario_WB_Hotel_Gabelbach_Mission_Kickelhahn.waypoints,missions\\\\Szenario_WB_Hotel_Gabelbach_Mission_Ilmenau_Sportplatz.waypoints,missions\\\\Szenario_WB_Hotel_Gabelbach_Mission_Manebach_Mitte.waypoints,missions\\\\Szenario_WB_Hotel_Gabelbach_Mission_Manebach_Sued.waypoints,missions\\\\Szenario_WB_Hotel_Gabelbach_Hover_HoheSchlaufe.waypoints,missions\\\\Szenario_WB_Hotel_Gabelbach_Hover_Kickelhahn.waypoints,missions\\\\Szenario_WB_Hotel_Gabelbach_Hover_Gabelbachskopf.waypoints,missions\\\\Szenario_WB_Hotel_Gabelbach_Hover_Dachskopf.waypoints\""
param *.uav[0].startX 3537m
param *.uav[0].startY 965m
param *.uav[0].startZ 539m
param *.uav[1].startX 312m
param *.uav[1].startY 1262m
param *.uav[1].startZ 540m
param *.uav[2].startX 2185m
param *.uav[2].startY 3026m
param *.uav[2].startZ 778m
param *.uav[3].startX 3537m
param *.uav[3].startY 965m
param *.uav[3].startZ 539m
param *.uav[4].startX 312m
param *.uav[4].startY 1262m
param *.uav[4].startZ 540m
param *.uav[5].startX 2185m
param *.uav[5].startY 3026m
param *.uav[5].startZ 778m
param *.uav[6].startX 3537m
param *.uav[6].startY 965m
param *.uav[6].startZ 539m
param *.uav[7].startX 312m
param *.uav[7].startY 1262m
param *.uav[7].startZ 540m
param *.uav[8].startX 2185m
param *.uav[8].startY 3026m
param *.uav[8].startZ 778m
param *.uav[9].startX 3537m
param *.uav[9].startY 965m
param *.uav[9].startZ 539m
param *.uav[10].startX 3537m
param *.uav[10].startY 965m
param *.uav[10].startZ 539m
param *.uav[11].startX 312m
param *.uav[11].startY 1262m
param *.uav[11].startZ 540m
param *.uav[12].startX 2185m
param *.uav[12].startY 3026m
param *.uav[12].startZ 778m
param *.uav[13].startX 3537m
param *.uav[13].startY 965m
param *.uav[13].startZ 539m
param *.uav[14].startX 312m
param *.uav[14].startY 1262m
param *.uav[14].startZ 540m
param *.uav[15].startX 2185m
param *.uav[15].startY 3026m
param *.uav[15].startZ 778m
param *.uav[16].startX 3537m
param *.uav[16].startY 965m
param *.uav[16].startZ 539m
param *.uav[17].startX 312m
param *.uav[17].startY 1262m
param *.uav[17].startZ 540m
param *.uav[18].startX 2185m
param *.uav[18].startY 3026m
param *.uav[18].startZ 778m
param *.uav[19].startX 3537m
param *.uav[19].startY 965m
param *.uav[19].startZ 539m
param *.uav[20].startX 3537m
param *.uav[20].startY 965m
param *.uav[20].startZ 539m
param *.uav[21].startX 312m
param *.uav[21].startY 1262m
param *.uav[21].startZ 540m
param *.uav[22].startX 2185m
param *.uav[22].startY 3026m
param *.uav[22].startZ 778m
param *.uav[23].startX 3537m
param *.uav[23].startY 965m
param *.uav[23].startZ 539m
param *.uav[24].startX 312m
param *.uav[24].startY 1262m
param *.uav[24].startZ 540m
param *.uav[25].startX 2185m
param *.uav[25].startY 3026m
param *.uav[25].startZ 778m
param *.uav[26].startX 3537m
param *.uav[26].startY 965m
param *.uav[26].startZ 539m
param *.uav[27].startX 312m
param *.uav[27].startY 1262m
param *.uav[27].startZ 540m
param *.uav[28].startX 2185m
param *.uav[28].startY 3026m
param *.uav[28].startZ 778m
param *.uav[29].startX 3537m
param *.uav[29].startY 965m
param *.uav[29].startZ 539m
param *.uav[30].startX 3537m
param *.uav[30].startY 965m
param *.uav[30].startZ 539m
param *.uav[31].startX 312m
param *.uav[31].startY 1262m
param *.uav[31].startZ 540m
param *.uav[32].startX 2185m
param *.uav[32].startY 3026m
param *.uav[32].startZ 778m
param *.uav[33].startX 3537m
param *.uav[33].startY 965m
param *.uav[33].startZ 539m
param *.uav[34].startX 312m
param *.uav[34].startY 1262m
param *.uav[34].startZ 540m
param *.uav[35].startX 2185m
param *.uav[35].startY 3026m
param *.uav[35].startZ 778m
param *.uav[36].startX 3537m
param *.uav[36].startY 965m
param *.uav[36].startZ 539m
param *.uav[37].startX 312m
param *.uav[37].startY 1262m
param *.uav[37].startZ 540m
param *.uav[38].startX 2185m
param *.uav[38].startY 3026m
param *.uav[38].startZ 778m
param *.uav[39].startX 3537m
param *.uav[39].startY 965m
param *.uav[39].startZ 539m
param *.uav[40].startX 3537m
param *.uav[40].startY 965m
param *.uav[40].startZ 539m
param *.uav[41].startX 312m
param *.uav[41].startY 1262m
param *.uav[41].startZ 540m
param *.uav[42].startX 2185m
param *.uav[42].startY 3026m
param *.uav[42].startZ 778m
param *.uav[43].startX 3537m
param *.uav[43].startY 965m
param *.uav[43].startZ 539m
param *.uav[44].startX 312m
param *.uav[44].startY 1262m
param *.uav[44].startZ 540m
param *.uav[45].startX 2185m
param *.uav[45].startY 3026m
param *.uav[45].startZ 778m
param *.uav[46].startX 3537m
param *.uav[46].startY 965m
param *.uav[46].startZ 539m
param *.uav[47].startX 312m
param *.uav[47].startY 1262m
param *.uav[47].startZ 540m
param *.uav[48].startX 2185m
param *.uav[48].startY 3026m
param *.uav[48].startZ 778m
param *.uav[49].startX 3537m
param *.uav[49].startY 965m
param *.uav[49].startZ 539m
param *.uav[50].startX 3537m
param *.uav[50].startY 965m
param *.uav[50].startZ 539m
param *.uav[51].startX 312m
param *.uav[51].startY 1262m
param *.uav[51].startZ 540m
param *.uav[52].startX 2185m
param *.uav[52].startY 3026m
param *.uav[52].startZ 778m
param *.uav[53].startX 3537m
param *.uav[53].startY 965m
param *.uav[53].startZ 539m
param *.uav[54].startX 312m
param *.uav[54].startY 1262m
param *.uav[54].startZ 540m
param *.uav[55].startX 2185m
param *.uav[55].startY 3026m
param *.uav[55].startZ 778m
param *.uav[56].startX 3537m
param *.uav[56].startY 965m
param *.uav[56].startZ 539m
param *.uav[57].startX 312m
param *.uav[57].startY 1262m
param *.uav[57].startZ 540m
param *.uav[58].startX 2185m
param *.uav[58].startY 3026m
param *.uav[58].startZ 778m
param *.uav[59].startX 3537m
param *.uav[59].startY 965m
param *.uav[59].startZ 539m
param *.uav[60].startX 3537m
param *.uav[60].startY 965m
param *.uav[60].startZ 539m
param *.uav[61].startX 312m
param *.uav[61].startY 1262m
param *.uav[61].startZ 540m
param *.uav[62].startX 2185m
param *.uav[62].startY 3026m
param *.uav[62].startZ 778m
param *.uav[63].startX 3537m
param *.uav[63].startY 965m
param *.uav[63].startZ 539m
param *.uav[64].startX 312m
param *.uav[64].startY 1262m
param *.uav[64].startZ 540m
param *.uav[65].startX 2185m
param *.uav[65].startY 3026m
param *.uav[65].startZ 778m
param *.uav[66].startX 3537m
param *.uav[66].startY 965m
param *.uav[66].startZ 539m
param *.uav[67].startX 312m
param *.uav[67].startY 1262m
param *.uav[67].startZ 540m
param *.uav[68].startX 2185m
param *.uav[68].startY 3026m
param *.uav[68].startZ 778m
param *.uav[69].startX 3537m
param *.uav[69].startY 965m
param *.uav[69].startZ 539m
param *.uav[70].startX 3537m
param *.uav[70].startY 965m
param *.uav[70].startZ 539m
param *.uav[71].startX 312m
param *.uav[71].startY 1262m
param *.uav[71].startZ 540m
param *.uav[72].startX 2185m
param *.uav[72].startY 3026m
param *.uav[72].startZ 778m
param *.uav[73].startX 3537m
param *.uav[73].startY 965m
param *.uav[73].startZ 539m
param *.uav[74].startX 312m
param *.uav[74].startY 1262m
param *.uav[74].startZ 540m
param *.uav[75].startX 2185m
param *.uav[75].startY 3026m
param *.uav[75].startZ 778m
param *.uav[76].startX 3537m
param *.uav[76].startY 965m
param *.uav[76].startZ 539m
param *.uav[77].startX 312m
param *.uav[77].startY 1262m
param *.uav[77].startZ 540m
param *.uav[78].startX 2185m
param *.uav[78].startY 3026m
param *.uav[78].startZ 778m
param *.uav[79].startX 3537m
param *.uav[79].startY 965m
param *.uav[79].startZ 539m
param *.uav[80].startX 3537m
param *.uav[80].startY 965m
param *.uav[80].startZ 539m
param *.uav[81].startX 312m
param *.uav[81].startY 1262m
param *.uav[81].startZ 540m
param *.uav[82].startX 2185m
param *.uav[82].startY 3026m
param *.uav[82].startZ 778m
param *.uav[83].startX 3537m
param *.uav[83].startY 965m
param *.uav[83].startZ 539m
param *.uav[84].startX 312m
param *.uav[84].startY 1262m
param *.uav[84].startZ 540m
param *.uav[85].startX 2185m
param *.uav[85].startY 3026m
param *.uav[85].startZ 778m
param *.uav[86].startX 3537m
param *.uav[86].startY 965m
param *.uav[86].startZ 539m
param *.uav[87].startX 312m
param *.uav[87].startY 1262m
param *.uav[87].startZ 540m
param *.uav[88].startX 2185m
param *.uav[88].startY 3026m
param *.uav[88].startZ 778m
param *.uav[89].startX 3537m
param *.uav[89].startY 965m
param *.uav[89].startZ 539m
param *.uav[90].startX 3537m
param *.uav[90].startY 965m
param *.uav[90].startZ 539m
param *.uav[91].startX 312m
param *.uav[91].startY 1262m
param *.uav[91].startZ 540m
param *.uav[92].startX 2185m
param *.uav[92].startY 3026m
param *.uav[92].startZ 778m
param *.uav[93].startX 3537m
param *.uav[93].startY 965m
param *.uav[93].startZ 539m
param *.uav[94].startX 312m
param *.uav[94].startY 1262m
param *.uav[94].startZ 540m
param *.uav[95].startX 2185m
param *.uav[95].startY 3026m
param *.uav[95].startZ 778m
param *.uav[96].startX 3537m
param *.uav[96].startY 965m
param *.uav[96].startZ 539m
param *.uav[97].startX 312m
param *.uav[97].startY 1262m
param *.uav[97].startZ 540m
param *.uav[98].startX 2185m
param *.uav[98].startY 3026m
param *.uav[98].startZ 778m
param *.uav[99].startX 3537m
param *.uav[99].startY 965m
param *.uav[99].startZ 539m
param *.osgEarthScene.scene "\"boston.earth\""
param *.playgroundLatitude 42.3558
param *.playgroundLongitude -71.0677
param *.playgroundWidth 400m
param *.playgroundHeight 200m
param *.channelController.connectionColor "\"#0000FF40\""
param *.channelController.showConnections false
param *.uav[*].modelURL "\"quadrocopter.small.obj.15.scale.0,0,90.rot\""
param *.uav[*].labelColor "\"#FF7C00CC\""
param *.uav[*].label2Color "\"#FF7C00EE\""
param *.uav[*].batteryCapacity 5200mAh
param *.uav[*].batteryRemaining uav[index].batteryCapacity
param *.uav[*].predictionQuantile 0.95
param *.uav[*].replacementMethod 2
param *.uav[*].weightedSumWeight 0.5
param *.cs[*].modelURL "\"chargingstation_v1.osgt.2.scale.0,0,0.rot.0,0,-15e-1.trans\""
param *.cs[*].spotsWaiting 999
param *.cs[*].spotsCharging 999
param *.cs[*].chargeEffectivenessPercentage 100
param *.cs[*].nonLinearPhaseStartPercentage 85
param *.cs[*].chargeCurrent 6.0A
param *.cs[*].prioritizeFastCharge true
param *.missionControl.replacementSearchMethod 0
param *.*.timeStep 9s

scalar OsgEarthNet.uav[0] utilizationSecMission 1180.6251525803
scalar OsgEarthNet.uav[0] utilizationSecMaintenance 640.31651040378
scalar OsgEarthNet.uav[0] utilizationSecCharge 6970
scalar OsgEarthNet.uav[0] utilizationSecIdle 250409.05733702
scalar OsgEarthNet.uav[0] utilizationEnergyMission 6039.1841545105
scalar OsgEarthNet.uav[0] utilizationEnergyMaintenance 3006.0675582886
scalar OsgEarthNet.uav[0] utilizationEnergyCharge 8981.4096679688
scalar OsgEarthNet.uav[0] utilizationEnergyOverdrawMission 0
scalar OsgEarthNet.uav[0] utilizationEnergyOverdrawMaintenance 0
scalar OsgEarthNet.uav[0] utilizationCountMissions 2
scalar OsgEarthNet.uav[0] utilizationCountManeuversMission 33
scalar OsgEarthNet.uav[0] utilizationCountManeuversMaintenance 4
scalar OsgEarthNet.uav[0] utilizationCountChargeState 2
scalar OsgEarthNet.uav[0] utilizationCountOverdrawnAfterMission 0
scalar OsgEarthNet.uav[0] utilizationCountIdleState 3
scalar OsgEarthNet.uav[0] utilizationFail 0
scalar OsgEarthNet.uav[0] simulationTime 259200
scalar OsgEarthNet.uav[1] utilizationSecMission 213.40226662093
scalar OsgEarthNet.uav[1] utilizationSecMaintenance 292.41944606525
scalar OsgEarthNet.uav[1] utilizationSecCharge 2320
scalar OsgEarthNet.uav[1] utilizationSecIdle 256374.17728731
scalar OsgEarthNet.uav[1] utilizationEnergyMission 886.56089782715
scalar OsgEarthNet.uav[1] utilizationEnergyMaintenance 1432.9424057007
scalar OsgEarthNet.uav[1] utilizationEnergyCharge 2319.5068359375
scalar OsgEarthNet.uav[1] utilizationEnergyOverdrawMission 0
scalar OsgEarthNet.uav[1] utilizationEnergyOverdrawMaintenance 0
scalar OsgEarthNet.uav[1] utilizationCountMissions 1
scalar OsgEarthNet.uav[1] utilizationCountManeuversMission 3
scalar OsgEarthNet.uav[1] utilizationCountManeuversMaintenance 2
scalar OsgEarthNet.uav[1] utilizationCountChargeState 1
scalar OsgEarthNet.uav[1] utilizationCountOverdrawnAfterMission 0
scalar OsgEarthNet.uav[1] utilizationCountIdleState 2
scalar OsgEarthNet.uav[1] utilizationFail 0
scalar OsgEarthNet.uav[1] simulationTime 259200
scalar OsgEarthNet.uav[2] utilizationSecMission 41901.11924727
scalar OsgEarthNet.uav[2] utilizationSecMaintenance 16832.102897402
scalar OsgEarthNet.uav[2] utilizationSecCharge 198244.77485533
scalar OsgEarthNet.uav[2] utilizationSecIdle 2222.002
scalar OsgEarthNet.uav[2] utilizationEnergyMission 201711.78287888
scalar OsgEarthNet.uav[2] utilizationEnergyMaintenance 78293.319484711
scalar OsgEarthNet.uav[2] utilizationEnergyCharge 280139.31225586
scalar OsgEarthNet.uav[2] utilizationEnergyOverdrawMission 0
scalar OsgEarthNet.uav[2] utilizationEnergyOverdrawMaintenance 0
scalar OsgEarthNet.uav[2] utilizationCountMissions 61
scalar OsgEarthNet.uav[2] utilizationCountManeuversMission 1247
scalar OsgEarthNet.uav[2] utilizationCountManeuversMaintenance 122
scalar OsgEarthNet.uav[2] utilizationCountChargeState 61
scalar OsgEarthNet.uav[2] utilizationCountOverdrawnAfterMission 0
scalar OsgEarthNet.uav[2] utilizationCountIdleState 14
scalar OsgEarthNet.uav[2] utilizationFail 0
scalar OsgEarthNet.uav[2] simulationTime 259200
scalar OsgEarthNet.uav[3] utilizationSecMission 460
scalar OsgEarthNet.uav[3] utilizationSecMaintenance 447.1303002674
scalar OsgEarthNet.uav[3] utilizationSecCharge 3450
scalar OsgEarthNet.uav[3] utilizationSecIdle 254842.86869973
scalar OsgEarthNet.uav[3] utilizationEnergyMission 2204.1422920227
scalar OsgEarthNet.uav[3] utilizationEnergyMaintenance 2236.5879631042
scalar OsgEarthNet.uav[3] utilizationEnergyCharge 4425.6875
scalar OsgEarthNet.uav[3] utilizationEnergyOverdrawMission 0
scalar OsgEarthNet.uav[3] utilizationEnergyOverdrawMaintenance 0
scalar OsgEarthNet.uav[3] utilizationCountMissions 1
scalar OsgEarthNet.uav[3] utilizationCountManeuversMission 23
scalar OsgEarthNet.uav[3] utilizationCountManeuversMaintenance 2
scalar OsgEarthNet.uav[3] utilizationCountChargeState 1
scalar OsgEarthNet.uav[3] utilizationCountOverdrawnAfterMission 0
scalar OsgEarthNet.uav[3] utilizationCountIdleState 2
scalar OsgEarthNet.uav[3] utilizationFail 0
scalar OsgEarthNet.uav[3] simulationTime 259200
scalar OsgEarthNet.uav[4] utilizationSecMission 10994.450686872
scalar OsgEarthNet.uav[4] utilizationSecMaintenance 7558.3518995603
scalar OsgEarthNet.uav[4] utilizationSecCharge 72810
scalar OsgEarthNet.uav[4] utilizationSecIdle 167837.19641357
scalar OsgEarthNet.uav[4] utilizationEnergyMission 54421.551250458
scalar OsgEarthNet.uav[4] utilizationEnergyMaintenance 35888.074085236
scalar OsgEarthNet.uav[4] utilizationEnergyCharge 89619.930908203
scalar OsgEarthNet.uav[4] utilizationEnergyOverdrawMission 0
scalar OsgEarthNet.uav[4] utilizationEnergyOverdrawMaintenance 0
scalar OsgEarthNet.uav[4] utilizationCountMissions 23
scalar OsgEarthNet.uav[4] utilizationCountManeuversMission 341
scalar OsgEarthNet.uav[4] utilizationCountManeuversMaintenance 46
scalar OsgEarthNet.uav[4] utilizationCountChargeState 23
scalar OsgEarthNet.uav[4] utilizationCountOverdrawnAfterMission 0
scalar OsgEarthNet.uav[4] utilizationCountIdleState 24
scalar OsgEarthNet.uav[4] utilizationFail 0
scalar OsgEarthNet.uav[4] simulationTime 259200
scalar OsgEarthNet.uav[5] utilizationSecMission 41557.745689486
scalar OsgEarthNet.uav[5] utilizationSecMaintenance 17538.242837729
scalar OsgEarthNet.uav[5] utilizationSecCharge 199172.01047278
scalar OsgEarthNet.uav[5] utilizationSecIdle 932
scalar OsgEarthNet.uav[5] utilizationEnergyMission 202387.02732086
scalar OsgEarthNet.uav[5] utilizationEnergyMaintenance 80175.802284241
scalar OsgEarthNet.uav[5] utilizationEnergyCharge 280556.00463867
scalar OsgEarthNet.uav[5] utilizationEnergyOverdrawMission 0
scalar OsgEarthNet.uav[5] utilizationEnergyOverdrawMaintenance 0
scalar OsgEarthNet.uav[5] utilizationCountMissions 62
scalar OsgEarthNet.uav[5] utilizationCountManeuversMission 1268
scalar OsgEarthNet.uav[5] utilizationCountManeuversMaintenance 124
scalar OsgEarthNet.uav[5] utilizationCountChargeState 62
scalar OsgEarthNet.uav[5] utilizationCountOverdrawnAfterMission 0
scalar OsgEarthNet.uav[5] utilizationCountIdleState 10
scalar OsgEarthNet.uav[5] utilizationFail 0
scalar OsgEarthNet.uav[5] simulationTime 259200
scalar OsgEarthNet.uav[6] utilizationSecMission 11185.001220642
scalar OsgEarthNet.uav[6] utilizationSecMaintenance 6903.7738597003
scalar OsgEarthNet.uav[6] utilizationSecCharge 67190
scalar OsgEarthNet.uav[6] utilizationSecIdle 173921.22391966
scalar OsgEarthNet.uav[6] utilizationEnergyMission 54891.591827393
scalar OsgEarthNet.uav[6] utilizationEnergyMaintenance 32306.917514801
scalar OsgEarthNet.uav[6] utilizationEnergyCharge 86816.933105469
scalar OsgEarthNet.uav[6] utilizationEnergyOverdrawMission 0
scalar OsgEarthNet.uav[6] utilizationEnergyOverdrawMaintenance 0
scalar OsgEarthNet.uav[6] utilizationCountMissions 19
scalar OsgEarthNet.uav[6] utilizationCountManeuversMission 351
scalar OsgEarthNet.uav[6] utilizationCountManeuversMaintenance 38
scalar OsgEarthNet.uav[6] utilizationCountChargeState 19
scalar OsgEarthNet.uav[6] utilizationCountOverdrawnAfterMission 0
scalar OsgEarthNet.uav[6] utilizationCountIdleState 20
scalar OsgEarthNet.uav[6] utilizationFail 0
scalar OsgEarthNet.uav[6] simulationTime 259200
scalar OsgEarthNet.uav[7] utilizationSecMission 4749.0502943736
scalar OsgEarthNet.uav[7] utilizationSecMaintenance 3305.7319615482
scalar OsgEarthNet.uav[7] utilizationSecCharge 28438.844373776
scalar OsgEarthNet.uav[7] utilizationSecIdle 222706.3723703
scalar OsgEarthNet.uav[7] utilizationEnergyMission 22565.731151581
scalar OsgEarthNet.uav[7] utilizationEnergyMaintenance 15764.363407135
scalar OsgEarthNet.uav[7] utilizationEnergyCharge 35208.25378418
scalar OsgEarthNet.uav[7] utilizationEnergyOverdrawMission 0
scalar OsgEarthNet.uav[7] utilizationEnergyOverdrawMaintenance 0
scalar OsgEarthNet.uav[7] utilizationCountMissions 10
scalar OsgEarthNet.uav[7] utilizationCountManeuversMission 148
scalar OsgEarthNet.uav[7] utilizationCountManeuversMaintenance 20
scalar OsgEarthNet.uav[7] utilizationCountChargeState 10
scalar OsgEarthNet.uav[7] utilizationCountOverdrawnAfterMission 0
scalar OsgEarthNet.uav[7] utilizationCountIdleState 10
scalar OsgEarthNet.uav[7] utilizationFail 0
scalar OsgEarthNet.uav[7] simulationTime 259200
scalar OsgEarthNet.uav[8] utilizationSecMission 41434.707338991
scalar OsgEarthNet.uav[8] utilizationSecMaintenance 18479.396223396
scalar OsgEarthNet.uav[8] utilizationSecCharge 198433.89443761
scalar OsgEarthNet.uav[8] utilizationSecIdle 852.001
scalar OsgEarthNet.uav[8] utilizationEnergyMission 200339.92648697
scalar OsgEarthNet.uav[8] utilizationEnergyMaintenance 85097.786468506
scalar OsgEarthNet.uav[8] utilizationEnergyCharge 283026.16235352
scalar OsgEarthNet.uav[8] utilizationEnergyOverdrawMission 0
scalar OsgEarthNet.uav[8] utilizationEnergyOverdrawMaintenance 0
scalar OsgEarthNet.uav[8] utilizationCountMissions 62
scalar OsgEarthNet.uav[8] utilizationCountManeuversMission 1329
scalar OsgEarthNet.uav[8] utilizationCountManeuversMaintenance 124
scalar OsgEarthNet.uav[8] utilizationCountChargeState 62
scalar OsgEarthNet.uav[8] utilizationCountOverdrawnAfterMission 0
scalar OsgEarthNet.uav[8] utilizationCountIdleState 6
scalar OsgEarthNet.uav[8] utilizationFail 0
scalar OsgEarthNet.uav[8] simulationTime 259200
scalar OsgEarthNet.uav[9] utilizationSecMission 8643.7509154817
scalar OsgEarthNet.uav[9] utilizationSecMaintenance 5195.7326964255
scalar OsgEarthNet.uav[9] utilizationSecCharge 52230
scalar OsgEarthNet.uav[9] utilizationSecIdle 193130.51538809
scalar OsgEarthNet.uav[9] utilizationEnergyMission 41806.844890594
scalar OsgEarthNet.uav[9] utilizationEnergyMaintenance 24871.08505249
scalar OsgEarthNet.uav[9] utilizationEnergyCharge 67138.469726562
scalar OsgEarthNet.uav[9] utilizationEnergyOverdrawMission 0
scalar OsgEarthNet.uav[9] utilizationEnergyOverdrawMaintenance 0
scalar OsgEarthNet.uav[9] utilizationCountMissions 15
scalar OsgEarthNet.uav[9] utilizationCountManeuversMission 276
scalar OsgEarthNet.uav[9] utilizationCountManeuversMaintenance 30
scalar OsgEarthNet.uav[9] utilizationCountChargeState 15
scalar OsgEarthNet.uav[9] utilizationCountOverdrawnAfterMission 0
scalar OsgEarthNet.uav[9] utilizationCountIdleState 16
scalar OsgEarthNet.uav[9] utilizationFail 0
scalar OsgEarthNet.uav[9] simulationTime 259200
scalar OsgEarthNet.uav[10] utilizationSecMission 10435.259259393
scalar OsgEarthNet.uav[10] utilizationSecMaintenance 5713.716440336
scalar OsgEarthNet.uav[10] utilizationSecCharge 59750
scalar OsgEarthNet.uav[10] utilizationSecIdle 183301.02330027
scalar OsgEarthNet.uav[10] utilizationEnergyMission 49398.50308609
scalar OsgEarthNet.uav[10] utilizationEnergyMaintenance 27439.699413299
scalar OsgEarthNet.uav[10] utilizationEnergyCharge 76965.403320312
scalar OsgEarthNet.uav[10] utilizationEnergyOverdrawMission 0
scalar OsgEarthNet.uav[10] utilizationEnergyOverdrawMaintenance 0
scalar OsgEarthNet.uav[10] utilizationCountMissions 17
scalar OsgEarthNet.uav[10] utilizationCountManeuversMission 309
scalar OsgEarthNet.uav[10] utilizationCountManeuversMaintenance 34
scalar OsgEarthNet.uav[10] utilizationCountChargeState 17
scalar OsgEarthNet.uav[10] utilizationCountOverdrawnAfterMission 0
scalar OsgEarthNet.uav[10] utilizationCountIdleState 18
scalar OsgEarthNet.uav[10] utilizationFail 0
scalar OsgEarthNet.uav[10] simulationTime 259200
scalar OsgEarthNet.uav[11] utilizationSecMission 4829.0502943736
scalar OsgEarthNet.uav[11] utilizationSecMaintenance 3305.3415942698
scalar OsgEarthNet.uav[11] utilizationSecCharge 31630
scalar OsgEarthNet.uav[11] utilizationSecIdle 219435.60711136
scalar OsgEarthNet.uav[11] utilizationEnergyMission 23334.009216309
scalar OsgEarthNet.uav[11] utilizationEnergyMaintenance 15779.875705719
scalar OsgEarthNet.uav[11] utilizationEnergyCharge 38967.273193359
scalar OsgEarthNet.uav[11] utilizationEnergyOverdrawMission 0
scalar OsgEarthNet.uav[11] utilizationEnergyOverdrawMaintenance 0
scalar OsgEarthNet.uav[11] utilizationCountMissions 10
scalar OsgEarthNet.uav[11] utilizationCountManeuversMission 152
scalar OsgEarthNet.uav[11] utilizationCountManeuversMaintenance 20
scalar OsgEarthNet.uav[11] utilizationCountChargeState 10
scalar OsgEarthNet.uav[11] utilizationCountOverdrawnAfterMission 0
scalar OsgEarthNet.uav[11] utilizationCountIdleState 11
scalar OsgEarthNet.uav[11] utilizationFail 0
scalar OsgEarthNet.uav[11] simulationTime 259200
scalar OsgEarthNet.uav[12] utilizationSecMission 42003.892232513
scalar OsgEarthNet.uav[12] utilizationSecMaintenance 17567.402089591
scalar OsgEarthNet.uav[12] utilizationSecCharge 197344.20673672
scalar OsgEarthNet.uav[12] utilizationSecIdle 2284.4979411756
scalar OsgEarthNet.uav[12] utilizationEnergyMission 203062.69587708
scalar OsgEarthNet.uav[12] utilizationEnergyMaintenance 82686.541172028
scalar OsgEarthNet.uav[12] utilizationEnergyCharge 280688.12335205
scalar OsgEarthNet.uav[12] utilizationEnergyOverdrawMission 0
scalar OsgEarthNet.uav[12] utilizationEnergyOverdrawMaintenance 0
scalar OsgEarthNet.uav[12] utilizationCountMissions 62
scalar OsgEarthNet.uav[12] utilizationCountManeuversMission 1354
scalar OsgEarthNet.uav[12] utilizationCountManeuversMaintenance 124
scalar OsgEarthNet.uav[12] utilizationCountChargeState 62
scalar OsgEarthNet.uav[12] utilizationCountOverdrawnAfterMission 0
scalar OsgEarthNet.uav[12] utilizationCountIdleState 9
scalar OsgEarthNet.uav[12] utilizationFail 0
scalar OsgEarthNet.uav[12] simulationTime 259200
scalar OsgEarthNet.uav[13] utilizationSecMission 9602.5006103211
scalar OsgEarthNet.uav[13] utilizationSecMaintenance 7036.4875898586
scalar OsgEarthNet.uav[13] utilizationSecCharge 62800
scalar OsgEarthNet.uav[13] utilizationSecIdle 179761.01079982
scalar OsgEarthNet.uav[13] utilizationEnergyMission 47030.483699799
scalar OsgEarthNet.uav[13] utilizationEnergyMaintenance 33555.78414154
scalar OsgEarthNet.uav[13] utilizationEnergyCharge 80646.15234375
scalar OsgEarthNet.uav[13] utilizationEnergyOverdrawMission 0
scalar OsgEarthNet.uav[13] utilizationEnergyOverdrawMaintenance 0
scalar OsgEarthNet.uav[13] utilizationCountMissions 18
scalar OsgEarthNet.uav[13] utilizationCountManeuversMission 376
scalar OsgEarthNet.uav[13] utilizationCountManeuversMaintenance 36
scalar OsgEarthNet.uav[13] utilizationCountChargeState 18
scalar OsgEarthNet.uav[13] utilizationCountOverdrawnAfterMission 0
scalar OsgEarthNet.uav[13] utilizationCountIdleState 19
scalar OsgEarthNet.uav[13] utilizationFail 0
scalar OsgEarthNet.uav[13] simulationTime 259200
scalar OsgEarthNet.uav[14] utilizationSecMission 10390.800784996
scalar OsgEarthNet.uav[14] utilizationSecMaintenance 6953.3062662478
scalar OsgEarthNet.uav[14] utilizationSecCharge 67288.575866925
scalar OsgEarthNet.uav[14] utilizationSecIdle 174567.31608183
scalar OsgEarthNet.uav[14] utilizationEnergyMission 50650.822425842
scalar OsgEarthNet.uav[14] utilizationEnergyMaintenance 33133.956989288
scalar OsgEarthNet.uav[14] utilizationEnergyCharge 82687.677001953
scalar OsgEarthNet.uav[14] utilizationEnergyOverdrawMission 0
scalar OsgEarthNet.uav[14] utilizationEnergyOverdrawMaintenance 0
scalar OsgEarthNet.uav[14] utilizationCountMissions 22
scalar OsgEarthNet.uav[14] utilizationCountManeuversMission 281
scalar OsgEarthNet.uav[14] utilizationCountManeuversMaintenance 44
scalar OsgEarthNet.uav[14] utilizationCountChargeState 22
scalar OsgEarthNet.uav[14] utilizationCountOverdrawnAfterMission 0
scalar OsgEarthNet.uav[14] utilizationCountIdleState 22
scalar OsgEarthNet.uav[14] utilizationFail 0
scalar OsgEarthNet.uav[14] simulationTime 259200
scalar OsgEarthNet.uav[15] utilizationSecMission 41577.946037799
scalar OsgEarthNet.uav[15] utilizationSecMaintenance 17844.880674384
scalar OsgEarthNet.uav[15] utilizationSecCharge 196005.16828782
scalar OsgEarthNet.uav[15] utilizationSecIdle 3772.004
scalar OsgEarthNet.uav[15] utilizationEnergyMission 200754.2110939
scalar OsgEarthNet.uav[15] utilizationEnergyMaintenance 81222.839565277
scalar OsgEarthNet.uav[15] utilizationEnergyCharge 277340.78198242
scalar OsgEarthNet.uav[15] utilizationEnergyOverdrawMission 0
scalar OsgEarthNet.uav[15] utilizationEnergyOverdrawMaintenance 0
scalar OsgEarthNet.uav[15] utilizationCountMissions 61
scalar OsgEarthNet.uav[15] utilizationCountManeuversMission 1163
scalar OsgEarthNet.uav[15] utilizationCountManeuversMaintenance 122
scalar OsgEarthNet.uav[15] utilizationCountChargeState 61
scalar OsgEarthNet.uav[15] utilizationCountOverdrawnAfterMission 0
scalar OsgEarthNet.uav[15] utilizationCountIdleState 12
scalar OsgEarthNet.uav[15] utilizationFail 0
scalar OsgEarthNet.uav[15] simulationTime 259200
scalar OsgEarthNet.uav[16] utilizationSecMission 7523.1257629014
scalar OsgEarthNet.uav[16] utilizationSecMaintenance 4632.450760866
scalar OsgEarthNet.uav[16] utilizationSecCharge 45750
scalar OsgEarthNet.uav[16] utilizationSecIdle 201294.42247623
scalar OsgEarthNet.uav[16] utilizationEnergyMission 37821.544921875
scalar OsgEarthNet.uav[16] utilizationEnergyMaintenance 22091.247768402
scalar OsgEarthNet.uav[16] utilizationEnergyCharge 59226.012207031
scalar OsgEarthNet.uav[16] utilizationEnergyOverdrawMission 0
scalar OsgEarthNet.uav[16] utilizationEnergyOverdrawMaintenance 0
scalar OsgEarthNet.uav[16] utilizationCountMissions 13
scalar OsgEarthNet.uav[16] utilizationCountManeuversMission 246
scalar OsgEarthNet.uav[16] utilizationCountManeuversMaintenance 26
scalar OsgEarthNet.uav[16] utilizationCountChargeState 13
scalar OsgEarthNet.uav[16] utilizationCountOverdrawnAfterMission 0
scalar OsgEarthNet.uav[16] utilizationCountIdleState 14
scalar OsgEarthNet.uav[16] utilizationFail 0
scalar OsgEarthNet.uav[16] simulationTime 259200
scalar OsgEarthNet.uav[17] utilizationSecMission 19992.344475756
scalar OsgEarthNet.uav[17] utilizationSecMaintenance 13312.477080126
scalar OsgEarthNet.uav[17] utilizationSecCharge 129390
scalar OsgEarthNet.uav[17] utilizationSecIdle 96505.177444117
scalar OsgEarthNet.uav[17] utilizationEnergyMission 96995.867076874
scalar OsgEarthNet.uav[17] utilizationEnergyMaintenance 63349.014812469
scalar OsgEarthNet.uav[17] utilizationEnergyCharge 161107.95556641
scalar OsgEarthNet.uav[17] utilizationEnergyOverdrawMission 0
scalar OsgEarthNet.uav[17] utilizationEnergyOverdrawMaintenance 0
scalar OsgEarthNet.uav[17] utilizationCountMissions 40
scalar OsgEarthNet.uav[17] utilizationCountManeuversMission 635
scalar OsgEarthNet.uav[17] utilizationCountManeuversMaintenance 80
scalar OsgEarthNet.uav[17] utilizationCountChargeState 40
scalar OsgEarthNet.uav[17] utilizationCountOverdrawnAfterMission 0
scalar OsgEarthNet.uav[17] utilizationCountIdleState 41
scalar OsgEarthNet.uav[17] utilizationFail 0
scalar OsgEarthNet.uav[17] simulationTime 259200
scalar OsgEarthNet.uav[18] utilizationSecMission 9456.2947029298
scalar OsgEarthNet.uav[18] utilizationSecMaintenance 5702.1992990546
scalar OsgEarthNet.uav[18] utilizationSecCharge 56110
scalar OsgEarthNet.uav[18] utilizationSecIdle 187931.50499802
scalar OsgEarthNet.uav[18] utilizationEnergyMission 44860.121318817
scalar OsgEarthNet.uav[18] utilizationEnergyMaintenance 27027.269939423
scalar OsgEarthNet.uav[18] utilizationEnergyCharge 72248.902832031
scalar OsgEarthNet.uav[18] utilizationEnergyOverdrawMission 0
scalar OsgEarthNet.uav[18] utilizationEnergyOverdrawMaintenance 0
scalar OsgEarthNet.uav[18] utilizationCountMissions 16
scalar OsgEarthNet.uav[18] utilizationCountManeuversMission 291
scalar OsgEarthNet.uav[18] utilizationCountManeuversMaintenance 32
scalar OsgEarthNet.uav[18] utilizationCountChargeState 16
scalar OsgEarthNet.uav[18] utilizationCountOverdrawnAfterMission 0
scalar OsgEarthNet.uav[18] utilizationCountIdleState 17
scalar OsgEarthNet.uav[18] utilizationFail 0
scalar OsgEarthNet.uav[18] simulationTime 259200
scalar OsgEarthNet.uav[19] utilizationSecMission 9663.7509154817
scalar OsgEarthNet.uav[19] utilizationSecMaintenance 6167.9522137591
scalar OsgEarthNet.uav[19] utilizationSecCharge 59670
scalar OsgEarthNet.uav[19] utilizationSecIdle 183698.29587076
scalar OsgEarthNet.uav[19] utilizationEnergyMission 47655.544563293
scalar OsgEarthNet.uav[19] utilizationEnergyMaintenance 29418.240093231
scalar OsgEarthNet.uav[19] utilizationEnergyCharge 77019.976074219
scalar OsgEarthNet.uav[19] utilizationEnergyOverdrawMission 0
scalar OsgEarthNet.uav[19] utilizationEnergyOverdrawMaintenance 0
scalar OsgEarthNet.uav[19] utilizationCountMissions 17
scalar OsgEarthNet.uav[19] utilizationCountManeuversMission 327
scalar OsgEarthNet.uav[19] utilizationCountManeuversMaintenance 34
scalar OsgEarthNet.uav[19] utilizationCountChargeState 17
scalar OsgEarthNet.uav[19] utilizationCountOverdrawnAfterMission 0
scalar OsgEarthNet.uav[19] utilizationCountIdleState 18
scalar OsgEarthNet.uav[19] utilizationFail 0
scalar OsgEarthNet.uav[19] simulationTime 259200
scalar OsgEarthNet.uav[20] utilizationSecMission 9724.8921455631
scalar OsgEarthNet.uav[20] utilizationSecMaintenance 5672.2041949223
scalar OsgEarthNet.uav[20] utilizationSecCharge 56470
scalar OsgEarthNet.uav[20] utilizationSecIdle 187332.90265951
scalar OsgEarthNet.uav[20] utilizationEnergyMission 46019.31855011
scalar OsgEarthNet.uav[20] utilizationEnergyMaintenance 27201.794750214
scalar OsgEarthNet.uav[20] utilizationEnergyCharge 73024.501464844
scalar OsgEarthNet.uav[20] utilizationEnergyOverdrawMission 0
scalar OsgEarthNet.uav[20] utilizationEnergyOverdrawMaintenance 0
scalar OsgEarthNet.uav[20] utilizationCountMissions 16
scalar OsgEarthNet.uav[20] utilizationCountManeuversMission 295
scalar OsgEarthNet.uav[20] utilizationCountManeuversMaintenance 32
scalar OsgEarthNet.uav[20] utilizationCountChargeState 16
scalar OsgEarthNet.uav[20] utilizationCountOverdrawnAfterMission 0
scalar OsgEarthNet.uav[20] utilizationCountIdleState 17
scalar OsgEarthNet.uav[20] utilizationFail 0
scalar OsgEarthNet.uav[20] simulationTime 259200
scalar OsgEarthNet.uav[21] utilizationSecMission 14631.007584859
scalar OsgEarthNet.uav[21] utilizationSecMaintenance 10569.417186298
scalar OsgEarthNet.uav[21] utilizationSecCharge 97257.571228843
scalar OsgEarthNet.uav[21] utilizationSecIdle 136742.003
scalar OsgEarthNet.uav[21] utilizationEnergyMission 71499.607124329
scalar OsgEarthNet.uav[21] utilizationEnergyMaintenance 50459.65568161
scalar OsgEarthNet.uav[21] utilizationEnergyCharge 119475.44604492
scalar OsgEarthNet.uav[21] utilizationEnergyOverdrawMission 0
scalar OsgEarthNet.uav[21] utilizationEnergyOverdrawMaintenance 0
scalar OsgEarthNet.uav[21] utilizationCountMissions 32
scalar OsgEarthNet.uav[21] utilizationCountManeuversMission 470
scalar OsgEarthNet.uav[21] utilizationCountManeuversMaintenance 64
scalar OsgEarthNet.uav[21] utilizationCountChargeState 32
scalar OsgEarthNet.uav[21] utilizationCountOverdrawnAfterMission 0
scalar OsgEarthNet.uav[21] utilizationCountIdleState 32
scalar OsgEarthNet.uav[21] utilizationFail 0
scalar OsgEarthNet.uav[21] simulationTime 259200
scalar OsgEarthNet.uav[22] utilizationSecMission 41427.685056501
scalar OsgEarthNet.uav[22] utilizationSecMaintenance 17626.343457162
scalar OsgEarthNet.uav[22] utilizationSecCharge 195355.2700513
scalar OsgEarthNet.uav[22] utilizationSecIdle 4790.700435033
scalar OsgEarthNet.uav[22] utilizationEnergyMission 198979.74557495
scalar OsgEarthNet.uav[22] utilizationEnergyMaintenance 80638.061412811
scalar OsgEarthNet.uav[22] utilizationEnergyCharge 275839.35498047
scalar OsgEarthNet.uav[22] utilizationEnergyOverdrawMission 0
scalar OsgEarthNet.uav[22] utilizationEnergyOverdrawMaintenance 0
scalar OsgEarthNet.uav[22] utilizationCountMissions 61
scalar OsgEarthNet.uav[22] utilizationCountManeuversMission 1223
scalar OsgEarthNet.uav[22] utilizationCountManeuversMaintenance 122
scalar OsgEarthNet.uav[22] utilizationCountChargeState 61
scalar OsgEarthNet.uav[22] utilizationCountOverdrawnAfterMission 0
scalar OsgEarthNet.uav[22] utilizationCountIdleState 11
scalar OsgEarthNet.uav[22] utilizationFail 0
scalar OsgEarthNet.uav[22] simulationTime 259200
scalar OsgEarthNet.uav[23] utilizationSecMission 11625.626373223
scalar OsgEarthNet.uav[23] utilizationSecMaintenance 6212.6917331419
scalar OsgEarthNet.uav[23] utilizationSecCharge 66070
scalar OsgEarthNet.uav[23] utilizationSecIdle 175291.68089364
scalar OsgEarthNet.uav[23] utilizationEnergyMission 55049.549888611
scalar OsgEarthNet.uav[23] utilizationEnergyMaintenance 29445.171360016
scalar OsgEarthNet.uav[23] utilizationEnergyCharge 84760.200683594
scalar OsgEarthNet.uav[23] utilizationEnergyOverdrawMission 0
scalar OsgEarthNet.uav[23] utilizationEnergyOverdrawMaintenance 0
scalar OsgEarthNet.uav[23] utilizationCountMissions 19
scalar OsgEarthNet.uav[23] utilizationCountManeuversMission 347
scalar OsgEarthNet.uav[23] utilizationCountManeuversMaintenance 38
scalar OsgEarthNet.uav[23] utilizationCountChargeState 19
scalar OsgEarthNet.uav[23] utilizationCountOverdrawnAfterMission 0
scalar OsgEarthNet.uav[23] utilizationCountIdleState 20
scalar OsgEarthNet.uav[23] utilizationFail 0
scalar OsgEarthNet.uav[23] simulationTime 259200
scalar OsgEarthNet.uav[24] utilizationSecMission 13740.759949604
scalar OsgEarthNet.uav[24] utilizationSecMaintenance 9841.0913866121
scalar OsgEarthNet.uav[24] utilizationSecCharge 93080
scalar OsgEarthNet.uav[24] utilizationSecIdle 142538.14766378
scalar OsgEarthNet.uav[24] utilizationEnergyMission 65668.661434174
scalar OsgEarthNet.uav[24] utilizationEnergyMaintenance 46611.938323975
scalar OsgEarthNet.uav[24] utilizationEnergyCharge 111805.40771484
scalar OsgEarthNet.uav[24] utilizationEnergyOverdrawMission 0
scalar OsgEarthNet.uav[24] utilizationEnergyOverdrawMaintenance 0
scalar OsgEarthNet.uav[24] utilizationCountMissions 31
scalar OsgEarthNet.uav[24] utilizationCountManeuversMission 388
scalar OsgEarthNet.uav[24] utilizationCountManeuversMaintenance 62
scalar OsgEarthNet.uav[24] utilizationCountChargeState 31
scalar OsgEarthNet.uav[24] utilizationCountOverdrawnAfterMission 0
scalar OsgEarthNet.uav[24] utilizationCountIdleState 32
scalar OsgEarthNet.uav[24] utilizationFail 0
scalar OsgEarthNet.uav[24] simulationTime 259200
scalar OsgEarthNet.uav[25] utilizationSecMission 41649.845614421
scalar OsgEarthNet.uav[25] utilizationSecMaintenance 18005.913643417
scalar OsgEarthNet.uav[25] utilizationSecCharge 197674.81439487
scalar OsgEarthNet.uav[25] utilizationSecIdle 1869.4253472904
scalar OsgEarthNet.uav[25] utilizationEnergyMission 200118.16643524
scalar OsgEarthNet.uav[25] utilizationEnergyMaintenance 83594.624446869
scalar OsgEarthNet.uav[25] utilizationEnergyCharge 279146.6862793
scalar OsgEarthNet.uav[25] utilizationEnergyOverdrawMission 0
scalar OsgEarthNet.uav[25] utilizationEnergyOverdrawMaintenance 0
scalar OsgEarthNet.uav[25] utilizationCountMissions 61
scalar OsgEarthNet.uav[25] utilizationCountManeuversMission 1186
scalar OsgEarthNet.uav[25] utilizationCountManeuversMaintenance 122
scalar OsgEarthNet.uav[25] utilizationCountChargeState 61
scalar OsgEarthNet.uav[25] utilizationCountOverdrawnAfterMission 0
scalar OsgEarthNet.uav[25] utilizationCountIdleState 6
scalar OsgEarthNet.uav[25] utilizationFail 0
scalar OsgEarthNet.uav[25] simulationTime 259200
scalar OsgEarthNet.uav[26] utilizationSecMission 6362.5006103211
scalar OsgEarthNet.uav[26] utilizationSecMaintenance 3991.83282388
scalar OsgEarthNet.uav[26] utilizationSecCharge 38540
scalar OsgEarthNet.uav[26] utilizationSecIdle 210305.6655658
scalar OsgEarthNet.uav[26] utilizationEnergyMission 31077.829898834
scalar OsgEarthNet.uav[26] utilizationEnergyMaintenance 18650.773685455
scalar OsgEarthNet.uav[26] utilizationEnergyCharge 49468.760253906
scalar OsgEarthNet.uav[26] utilizationEnergyOverdrawMission 0
scalar OsgEarthNet.uav[26] utilizationEnergyOverdrawMaintenance 0
scalar OsgEarthNet.uav[26] utilizationCountMissions 11
scalar OsgEarthNet.uav[26] utilizationCountManeuversMission 214
scalar OsgEarthNet.uav[26] utilizationCountManeuversMaintenance 22
scalar OsgEarthNet.uav[26] utilizationCountChargeState 11
scalar OsgEarthNet.uav[26] utilizationCountOverdrawnAfterMission 0
scalar OsgEarthNet.uav[26] utilizationCountIdleState 12
scalar OsgEarthNet.uav[26] utilizationFail 0
scalar OsgEarthNet.uav[26] simulationTime 259200
scalar OsgEarthNet.uav[27] utilizationSecMission 12898.100588747
scalar OsgEarthNet.uav[27] utilizationSecMaintenance 8974.1792745337
scalar OsgEarthNet.uav[27] utilizationSecCharge 84800
scalar OsgEarthNet.uav[27] utilizationSecIdle 152527.71913672
scalar OsgEarthNet.uav[27] utilizationEnergyMission 64453.927146912
scalar OsgEarthNet.uav[27] utilizationEnergyMaintenance 42585.774478912
scalar OsgEarthNet.uav[27] utilizationEnergyCharge 105979.60473633
scalar OsgEarthNet.uav[27] utilizationEnergyOverdrawMission 0
scalar OsgEarthNet.uav[27] utilizationEnergyOverdrawMaintenance 0
scalar OsgEarthNet.uav[27] utilizationCountMissions 26
scalar OsgEarthNet.uav[27] utilizationCountManeuversMission 466
scalar OsgEarthNet.uav[27] utilizationCountManeuversMaintenance 52
scalar OsgEarthNet.uav[27] utilizationCountChargeState 26
scalar OsgEarthNet.uav[27] utilizationCountOverdrawnAfterMission 0
scalar OsgEarthNet.uav[27] utilizationCountIdleState 27
scalar OsgEarthNet.uav[27] utilizationFail 0
scalar OsgEarthNet.uav[27] simulationTime 259200
scalar OsgEarthNet.uav[28] utilizationSecMission 40854.868518788
scalar OsgEarthNet.uav[28] utilizationSecMaintenance 18319.055973129
scalar OsgEarthNet.uav[28] utilizationSecCharge 197314.07150808
scalar OsgEarthNet.uav[28] utilizationSecIdle 2712.003
scalar OsgEarthNet.uav[28] utilizationEnergyMission 199147.44845581
scalar OsgEarthNet.uav[28] utilizationEnergyMaintenance 85422.892585754
scalar OsgEarthNet.uav[28] utilizationEnergyCharge 281951.29956055
scalar OsgEarthNet.uav[28] utilizationEnergyOverdrawMission 0
scalar OsgEarthNet.uav[28] utilizationEnergyOverdrawMaintenance 0
scalar OsgEarthNet.uav[28] utilizationCountMissions 62
scalar OsgEarthNet.uav[28] utilizationCountManeuversMission 1307
scalar OsgEarthNet.uav[28] utilizationCountManeuversMaintenance 124
scalar OsgEarthNet.uav[28] utilizationCountChargeState 62
scalar OsgEarthNet.uav[28] utilizationCountOverdrawnAfterMission 0
scalar OsgEarthNet.uav[28] utilizationCountIdleState 6
scalar OsgEarthNet.uav[28] utilizationFail 0
scalar OsgEarthNet.uav[28] simulationTime 259200
scalar OsgEarthNet.uav[29] utilizationSecMission 11464.376068062
scalar OsgEarthNet.uav[29] utilizationSecMaintenance 7266.0131359295
scalar OsgEarthNet.uav[29] utilizationSecCharge 69820
scalar OsgEarthNet.uav[29] utilizationSecIdle 170649.60979601
scalar OsgEarthNet.uav[29] utilizationEnergyMission 56907.490917206
scalar OsgEarthNet.uav[29] utilizationEnergyMaintenance 34569.321071625
scalar OsgEarthNet.uav[29] utilizationEnergyCharge 89912.776367188
scalar OsgEarthNet.uav[29] utilizationEnergyOverdrawMission 0
scalar OsgEarthNet.uav[29] utilizationEnergyOverdrawMaintenance 0
scalar OsgEarthNet.uav[29] utilizationCountMissions 20
scalar OsgEarthNet.uav[29] utilizationCountManeuversMission 391
scalar OsgEarthNet.uav[29] utilizationCountManeuversMaintenance 40
scalar OsgEarthNet.uav[29] utilizationCountChargeState 20
scalar OsgEarthNet.uav[29] utilizationCountOverdrawnAfterMission 0
scalar OsgEarthNet.uav[29] utilizationCountIdleState 21
scalar OsgEarthNet.uav[29] utilizationFail 0
scalar OsgEarthNet.uav[29] simulationTime 259200
scalar OsgEarthNet.uav[30] utilizationSecMission 10835.259259393
scalar OsgEarthNet.uav[30] utilizationSecMaintenance 6423.2701953005
scalar OsgEarthNet.uav[30] utilizationSecCharge 63470
scalar OsgEarthNet.uav[30] utilizationSecIdle 178471.46954531
scalar OsgEarthNet.uav[30] utilizationEnergyMission 51939.942646027
scalar OsgEarthNet.uav[30] utilizationEnergyMaintenance 30658.901908874
scalar OsgEarthNet.uav[30] utilizationEnergyCharge 81697.758300781
scalar OsgEarthNet.uav[30] utilizationEnergyOverdrawMission 0
scalar OsgEarthNet.uav[30] utilizationEnergyOverdrawMaintenance 0
scalar OsgEarthNet.uav[30] utilizationCountMissions 18
scalar OsgEarthNet.uav[30] utilizationCountManeuversMission 329
scalar OsgEarthNet.uav[30] utilizationCountManeuversMaintenance 36
scalar OsgEarthNet.uav[30] utilizationCountChargeState 18
scalar OsgEarthNet.uav[30] utilizationCountOverdrawnAfterMission 0
scalar OsgEarthNet.uav[30] utilizationCountIdleState 19
scalar OsgEarthNet.uav[30] utilizationFail 0
scalar OsgEarthNet.uav[30] simulationTime 259200
scalar OsgEarthNet.uav[31] utilizationSecMission 13695.152757244
scalar OsgEarthNet.uav[31] utilizationSecMaintenance 9762.8382427564
scalar OsgEarthNet.uav[31] utilizationSecCharge 88200
scalar OsgEarthNet.uav[31] utilizationSecIdle 147542.008
scalar OsgEarthNet.uav[31] utilizationEnergyMission 66189.239334106
scalar OsgEarthNet.uav[31] utilizationEnergyMaintenance 46545.720297779
scalar OsgEarthNet.uav[31] utilizationEnergyCharge 110382.01147461
scalar OsgEarthNet.uav[31] utilizationEnergyOverdrawMission 0
scalar OsgEarthNet.uav[31] utilizationEnergyOverdrawMaintenance 0
scalar OsgEarthNet.uav[31] utilizationCountMissions 28
scalar OsgEarthNet.uav[31] utilizationCountManeuversMission 528
scalar OsgEarthNet.uav[31] utilizationCountManeuversMaintenance 56
scalar OsgEarthNet.uav[31] utilizationCountChargeState 27
scalar OsgEarthNet.uav[31] utilizationCountOverdrawnAfterMission 0
scalar OsgEarthNet.uav[31] utilizationCountIdleState 28
scalar OsgEarthNet.uav[31] utilizationFail 0
scalar OsgEarthNet.uav[31] simulationTime 259200
scalar OsgEarthNet.uav[32] utilizationSecMission 41228.792761079
scalar OsgEarthNet.uav[32] utilizationSecMaintenance 17956.146250143
scalar OsgEarthNet.uav[32] utilizationSecCharge 197633.05798878
scalar OsgEarthNet.uav[32] utilizationSecIdle 2382.002
scalar OsgEarthNet.uav[32] utilizationEnergyMission 197780.67589188
scalar OsgEarthNet.uav[32] utilizationEnergyMaintenance 83371.361461639
scalar OsgEarthNet.uav[32] utilizationEnergyCharge 281497.96582031
scalar OsgEarthNet.uav[32] utilizationEnergyOverdrawMission 0
scalar OsgEarthNet.uav[32] utilizationEnergyOverdrawMaintenance 0
scalar OsgEarthNet.uav[32] utilizationCountMissions 61
scalar OsgEarthNet.uav[32] utilizationCountManeuversMission 1220
scalar OsgEarthNet.uav[32] utilizationCountManeuversMaintenance 122
scalar OsgEarthNet.uav[32] utilizationCountChargeState 61
scalar OsgEarthNet.uav[32] utilizationCountOverdrawnAfterMission 0
scalar OsgEarthNet.uav[32] utilizationCountIdleState 11
scalar OsgEarthNet.uav[32] utilizationFail 0
scalar OsgEarthNet.uav[32] simulationTime 259200
scalar OsgEarthNet.uav[33] utilizationSecMission 10703.125762901
scalar OsgEarthNet.uav[33] utilizationSecMaintenance 7764.4728488137
scalar OsgEarthNet.uav[33] utilizationSecCharge 69830
scalar OsgEarthNet.uav[33] utilizationSecIdle 170902.40038828
scalar OsgEarthNet.uav[33] utilizationEnergyMission 53527.787368774
scalar OsgEarthNet.uav[33] utilizationEnergyMaintenance 37272.067123413
scalar OsgEarthNet.uav[33] utilizationEnergyCharge 89917.223632812
scalar OsgEarthNet.uav[33] utilizationEnergyOverdrawMission 0
scalar OsgEarthNet.uav[33] utilizationEnergyOverdrawMaintenance 0
scalar OsgEarthNet.uav[33] utilizationCountMissions 20
scalar OsgEarthNet.uav[33] utilizationCountManeuversMission 405
scalar OsgEarthNet.uav[33] utilizationCountManeuversMaintenance 40
scalar OsgEarthNet.uav[33] utilizationCountChargeState 20
scalar OsgEarthNet.uav[33] utilizationCountOverdrawnAfterMission 0
scalar OsgEarthNet.uav[33] utilizationCountIdleState 21
scalar OsgEarthNet.uav[33] utilizationFail 0
scalar OsgEarthNet.uav[33] simulationTime 259200
scalar OsgEarthNet.uav[34] utilizationSecMission 14004.40985148
scalar OsgEarthNet.uav[34] utilizationSecMaintenance 10051.039535221
scalar OsgEarthNet.uav[34] utilizationSecCharge 93302.539613299
scalar OsgEarthNet.uav[34] utilizationSecIdle 141842.01
scalar OsgEarthNet.uav[34] utilizationEnergyMission 67840.206237793
scalar OsgEarthNet.uav[34] utilizationEnergyMaintenance 47893.625049591
scalar OsgEarthNet.uav[34] utilizationEnergyCharge 113992.47924805
scalar OsgEarthNet.uav[34] utilizationEnergyOverdrawMission 0
scalar OsgEarthNet.uav[34] utilizationEnergyOverdrawMaintenance 0
scalar OsgEarthNet.uav[34] utilizationCountMissions 31
scalar OsgEarthNet.uav[34] utilizationCountManeuversMission 431
scalar OsgEarthNet.uav[34] utilizationCountManeuversMaintenance 62
scalar OsgEarthNet.uav[34] utilizationCountChargeState 31
scalar OsgEarthNet.uav[34] utilizationCountOverdrawnAfterMission 0
scalar OsgEarthNet.uav[34] utilizationCountIdleState 31
scalar OsgEarthNet.uav[34] utilizationFail 0
scalar OsgEarthNet.uav[34] simulationTime 259200
scalar OsgEarthNet.uav[35] utilizationSecMission 41102.342685721
scalar OsgEarthNet.uav[35] utilizationSecMaintenance 17743.536466963
scalar OsgEarthNet.uav[35] utilizationSecCharge 197812.6668886
scalar OsgEarthNet.uav[35] utilizationSecIdle 2541.4529587171
scalar OsgEarthNet.uav[35] utilizationEnergyMission 199695.31014633
scalar OsgEarthNet.uav[35] utilizationEnergyMaintenance 81825.334693909
scalar OsgEarthNet.uav[35] utilizationEnergyCharge 280418.07983398
scalar OsgEarthNet.uav[35] utilizationEnergyOverdrawMission 0
scalar OsgEarthNet.uav[35] utilizationEnergyOverdrawMaintenance 0
scalar OsgEarthNet.uav[35] utilizationCountMissions 61
scalar OsgEarthNet.uav[35] utilizationCountManeuversMission 1205
scalar OsgEarthNet.uav[35] utilizationCountManeuversMaintenance 122
scalar OsgEarthNet.uav[35] utilizationCountChargeState 61
scalar OsgEarthNet.uav[35] utilizationCountOverdrawnAfterMission 0
scalar OsgEarthNet.uav[35] utilizationCountIdleState 10
scalar OsgEarthNet.uav[35] utilizationFail 0
scalar OsgEarthNet.uav[35] simulationTime 259200
scalar OsgEarthNet.uav[36] utilizationSecMission 9374.1180293114
scalar OsgEarthNet.uav[36] utilizationSecMaintenance 5509.366969954
scalar OsgEarthNet.uav[36] utilizationSecCharge 55810
scalar OsgEarthNet.uav[36] utilizationSecIdle 188506.51400073
scalar OsgEarthNet.uav[36] utilizationEnergyMission 45958.059913635
scalar OsgEarthNet.uav[36] utilizationEnergyMaintenance 26159.786327362
scalar OsgEarthNet.uav[36] utilizationEnergyCharge 71786.073242188
scalar OsgEarthNet.uav[36] utilizationEnergyOverdrawMission 0
scalar OsgEarthNet.uav[36] utilizationEnergyOverdrawMaintenance 0
scalar OsgEarthNet.uav[36] utilizationCountMissions 16
scalar OsgEarthNet.uav[36] utilizationCountManeuversMission 291
scalar OsgEarthNet.uav[36] utilizationCountManeuversMaintenance 32
scalar OsgEarthNet.uav[36] utilizationCountChargeState 16
scalar OsgEarthNet.uav[36] utilizationCountOverdrawnAfterMission 0
scalar OsgEarthNet.uav[36] utilizationCountIdleState 17
scalar OsgEarthNet.uav[36] utilizationFail 0
scalar OsgEarthNet.uav[36] simulationTime 259200
scalar OsgEarthNet.uav[37] utilizationSecMission 21275.085507397
scalar OsgEarthNet.uav[37] utilizationSecMaintenance 13534.282090202
scalar OsgEarthNet.uav[37] utilizationSecCharge 132440
scalar OsgEarthNet.uav[37] utilizationSecIdle 91950.631402401
scalar OsgEarthNet.uav[37] utilizationEnergyMission 102545.93666077
scalar OsgEarthNet.uav[37] utilizationEnergyMaintenance 65011.289642334
scalar OsgEarthNet.uav[37] utilizationEnergyCharge 166445.51831055
scalar OsgEarthNet.uav[37] utilizationEnergyOverdrawMission 0
scalar OsgEarthNet.uav[37] utilizationEnergyOverdrawMaintenance 0
scalar OsgEarthNet.uav[37] utilizationCountMissions 40
scalar OsgEarthNet.uav[37] utilizationCountManeuversMission 700
scalar OsgEarthNet.uav[37] utilizationCountManeuversMaintenance 80
scalar OsgEarthNet.uav[37] utilizationCountChargeState 40
scalar OsgEarthNet.uav[37] utilizationCountOverdrawnAfterMission 0
scalar OsgEarthNet.uav[37] utilizationCountIdleState 41
scalar OsgEarthNet.uav[37] utilizationFail 0
scalar OsgEarthNet.uav[37] simulationTime 259200
scalar OsgEarthNet.uav[38] utilizationSecMission 42133.741596535
scalar OsgEarthNet.uav[38] utilizationSecMaintenance 17451.174976561
scalar OsgEarthNet.uav[38] utilizationSecCharge 198570
scalar OsgEarthNet.uav[38] utilizationSecIdle 1045.082426904
scalar OsgEarthNet.uav[38] utilizationEnergyMission 202528.71286011
scalar OsgEarthNet.uav[38] utilizationEnergyMaintenance 79574.643627167
scalar OsgEarthNet.uav[38] utilizationEnergyCharge 281242.80224609
scalar OsgEarthNet.uav[38] utilizationEnergyOverdrawMission 0
scalar OsgEarthNet.uav[38] utilizationEnergyOverdrawMaintenance 0
scalar OsgEarthNet.uav[38] utilizationCountMissions 61
scalar OsgEarthNet.uav[38] utilizationCountManeuversMission 1165
scalar OsgEarthNet.uav[38] utilizationCountManeuversMaintenance 122
scalar OsgEarthNet.uav[38] utilizationCountChargeState 61
scalar OsgEarthNet.uav[38] utilizationCountOverdrawnAfterMission 0
scalar OsgEarthNet.uav[38] utilizationCountIdleState 8
scalar OsgEarthNet.uav[38] utilizationFail 0
scalar OsgEarthNet.uav[38] simulationTime 259200
scalar OsgEarthNet.uav[39] utilizationSecMission 9904.376068062
scalar OsgEarthNet.uav[39] utilizationSecMaintenance 5913.6866348381
scalar OsgEarthNet.uav[39] utilizationSecCharge 60010
scalar OsgEarthNet.uav[39] utilizationSecIdle 183371.9362971
scalar OsgEarthNet.uav[39] utilizationEnergyMission 47676.593616486
scalar OsgEarthNet.uav[39] utilizationEnergyMaintenance 28536.23759079
scalar OsgEarthNet.uav[39] utilizationEnergyCharge 77395.067871094
scalar OsgEarthNet.uav[39] utilizationEnergyOverdrawMission 0
scalar OsgEarthNet.uav[39] utilizationEnergyOverdrawMaintenance 0
scalar OsgEarthNet.uav[39] utilizationCountMissions 17
scalar OsgEarthNet.uav[39] utilizationCountManeuversMission 313
scalar OsgEarthNet.uav[39] utilizationCountManeuversMaintenance 34
scalar OsgEarthNet.uav[39] utilizationCountChargeState 17
scalar OsgEarthNet.uav[39] utilizationCountOverdrawnAfterMission 0
scalar OsgEarthNet.uav[39] utilizationCountIdleState 18
scalar OsgEarthNet.uav[39] utilizationFail 0
scalar OsgEarthNet.uav[39] simulationTime 259200
scalar OsgEarthNet.uav[40] utilizationSecMission 18929.486363783
scalar OsgEarthNet.uav[40] utilizationSecMaintenance 10130.439803768
scalar OsgEarthNet.uav[40] utilizationSecCharge 108470
scalar OsgEarthNet.uav[40] utilizationSecIdle 121670.07283245
scalar OsgEarthNet.uav[40] utilizationEnergyMission 91715.338226318
scalar OsgEarthNet.uav[40] utilizationEnergyMaintenance 48317.514057159
scalar OsgEarthNet.uav[40] utilizationEnergyCharge 139607.29150391
scalar OsgEarthNet.uav[40] utilizationEnergyOverdrawMission 0
scalar OsgEarthNet.uav[40] utilizationEnergyOverdrawMaintenance 0
scalar OsgEarthNet.uav[40] utilizationCountMissions 31
scalar OsgEarthNet.uav[40] utilizationCountManeuversMission 539
scalar OsgEarthNet.uav[40] utilizationCountManeuversMaintenance 62
scalar OsgEarthNet.uav[40] utilizationCountChargeState 31
scalar OsgEarthNet.uav[40] utilizationCountOverdrawnAfterMission 0
scalar OsgEarthNet.uav[40] utilizationCountIdleState 32
scalar OsgEarthNet.uav[40] utilizationFail 0
scalar OsgEarthNet.uav[40] simulationTime 259200
scalar OsgEarthNet.uav[41] utilizationSecMission 17490.098714624
scalar OsgEarthNet.uav[41] utilizationSecMaintenance 12153.615822972
scalar OsgEarthNet.uav[41] utilizationSecCharge 114394.2774624
scalar OsgEarthNet.uav[41] utilizationSecIdle 115162.007
scalar OsgEarthNet.uav[41] utilizationEnergyMission 85276.951560974
scalar OsgEarthNet.uav[41] utilizationEnergyMaintenance 57939.063278198
scalar OsgEarthNet.uav[41] utilizationEnergyCharge 143218.58129883
scalar OsgEarthNet.uav[41] utilizationEnergyOverdrawMission 0
scalar OsgEarthNet.uav[41] utilizationEnergyOverdrawMaintenance 0
scalar OsgEarthNet.uav[41] utilizationCountMissions 36
scalar OsgEarthNet.uav[41] utilizationCountManeuversMission 584
scalar OsgEarthNet.uav[41] utilizationCountManeuversMaintenance 72
scalar OsgEarthNet.uav[41] utilizationCountChargeState 36
scalar OsgEarthNet.uav[41] utilizationCountOverdrawnAfterMission 0
scalar OsgEarthNet.uav[41] utilizationCountIdleState 36
scalar OsgEarthNet.uav[41] utilizationFail 0
scalar OsgEarthNet.uav[41] simulationTime 259200
scalar OsgEarthNet.uav[42] utilizationSecMission 41594.869582973
scalar OsgEarthNet.uav[42] utilizationSecMaintenance 17465.943309206
scalar OsgEarthNet.uav[42] utilizationSecCharge 195549.14356041
scalar OsgEarthNet.uav[42] utilizationSecIdle 4590.0425474148
scalar OsgEarthNet.uav[42] utilizationEnergyMission 198389.44341278
scalar OsgEarthNet.uav[42] utilizationEnergyMaintenance 80811.162670136
scalar OsgEarthNet.uav[42] utilizationEnergyCharge 275228.39920044
scalar OsgEarthNet.uav[42] utilizationEnergyOverdrawMission 0
scalar OsgEarthNet.uav[42] utilizationEnergyOverdrawMaintenance 0
scalar OsgEarthNet.uav[42] utilizationCountMissions 61
scalar OsgEarthNet.uav[42] utilizationCountManeuversMission 1147
scalar OsgEarthNet.uav[42] utilizationCountManeuversMaintenance 122
scalar OsgEarthNet.uav[42] utilizationCountChargeState 61
scalar OsgEarthNet.uav[42] utilizationCountOverdrawnAfterMission 0
scalar OsgEarthNet.uav[42] utilizationCountIdleState 10
scalar OsgEarthNet.uav[42] utilizationFail 0
scalar OsgEarthNet.uav[42] simulationTime 259200
scalar OsgEarthNet.uav[43] utilizationSecMission 12154.118029311
scalar OsgEarthNet.uav[43] utilizationSecMaintenance 8368.7032333248
scalar OsgEarthNet.uav[43] utilizationSecCharge 74131.906142034
scalar OsgEarthNet.uav[43] utilizationSecIdle 164545.27159533
scalar OsgEarthNet.uav[43] utilizationEnergyMission 58689.149543762
scalar OsgEarthNet.uav[43] utilizationEnergyMaintenance 39952.56822586
scalar OsgEarthNet.uav[43] utilizationEnergyCharge 95926.572998047
scalar OsgEarthNet.uav[43] utilizationEnergyOverdrawMission 0
scalar OsgEarthNet.uav[43] utilizationEnergyOverdrawMaintenance 0
scalar OsgEarthNet.uav[43] utilizationCountMissions 22
scalar OsgEarthNet.uav[43] utilizationCountManeuversMission 430
scalar OsgEarthNet.uav[43] utilizationCountManeuversMaintenance 44
scalar OsgEarthNet.uav[43] utilizationCountChargeState 22
scalar OsgEarthNet.uav[43] utilizationCountOverdrawnAfterMission 0
scalar OsgEarthNet.uav[43] utilizationCountIdleState 22
scalar OsgEarthNet.uav[43] utilizationFail 0
scalar OsgEarthNet.uav[43] simulationTime 259200
scalar OsgEarthNet.uav[44] utilizationSecMission 20744.821811119
scalar OsgEarthNet.uav[44] utilizationSecMaintenance 13125.109614087
scalar OsgEarthNet.uav[44] utilizationSecCharge 130690
scalar OsgEarthNet.uav[44] utilizationSecIdle 94640.067574794
scalar OsgEarthNet.uav[44] utilizationEnergyMission 101625.02540207
scalar OsgEarthNet.uav[44] utilizationEnergyMaintenance 61876.859680176
scalar OsgEarthNet.uav[44] utilizationEnergyCharge 163328.55932617
scalar OsgEarthNet.uav[44] utilizationEnergyOverdrawMission 0
scalar OsgEarthNet.uav[44] utilizationEnergyOverdrawMaintenance 0
scalar OsgEarthNet.uav[44] utilizationCountMissions 40
scalar OsgEarthNet.uav[44] utilizationCountManeuversMission 633
scalar OsgEarthNet.uav[44] utilizationCountManeuversMaintenance 79
scalar OsgEarthNet.uav[44] utilizationCountChargeState 40
scalar OsgEarthNet.uav[44] utilizationCountOverdrawnAfterMission 0
scalar OsgEarthNet.uav[44] utilizationCountIdleState 41
scalar OsgEarthNet.uav[44] utilizationFail 0
scalar OsgEarthNet.uav[44] simulationTime 259200
scalar OsgEarthNet.uav[45] utilizationSecMission 40814.130473093
scalar OsgEarthNet.uav[45] utilizationSecMaintenance 17643.634113433
scalar OsgEarthNet.uav[45] utilizationSecCharge 197296.77876007
scalar OsgEarthNet.uav[45] utilizationSecIdle 3445.4556534032
scalar OsgEarthNet.uav[45] utilizationEnergyMission 199107.45064163
scalar OsgEarthNet.uav[45] utilizationEnergyMaintenance 81285.201568604
scalar OsgEarthNet.uav[45] utilizationEnergyCharge 279482.84863281
scalar OsgEarthNet.uav[45] utilizationEnergyOverdrawMission 0
scalar OsgEarthNet.uav[45] utilizationEnergyOverdrawMaintenance 0
scalar OsgEarthNet.uav[45] utilizationCountMissions 61
scalar OsgEarthNet.uav[45] utilizationCountManeuversMission 1339
scalar OsgEarthNet.uav[45] utilizationCountManeuversMaintenance 122
scalar OsgEarthNet.uav[45] utilizationCountChargeState 61
scalar OsgEarthNet.uav[45] utilizationCountOverdrawnAfterMission 0
scalar OsgEarthNet.uav[45] utilizationCountIdleState 13
scalar OsgEarthNet.uav[45] utilizationFail 0
scalar OsgEarthNet.uav[45] simulationTime 259200
scalar OsgEarthNet.uav[46] utilizationSecMission 13845.626373223
scalar OsgEarthNet.uav[46] utilizationSecMaintenance 8711.972395505
scalar OsgEarthNet.uav[46] utilizationSecCharge 82555.568261185
scalar OsgEarthNet.uav[46] utilizationSecIdle 154086.83197009
scalar OsgEarthNet.uav[46] utilizationEnergyMission 67380.571174622
scalar OsgEarthNet.uav[46] utilizationEnergyMaintenance 41370.669708252
scalar OsgEarthNet.uav[46] utilizationEnergyCharge 106967.78027344
scalar OsgEarthNet.uav[46] utilizationEnergyOverdrawMission 0
scalar OsgEarthNet.uav[46] utilizationEnergyOverdrawMaintenance 0
scalar OsgEarthNet.uav[46] utilizationCountMissions 24
scalar OsgEarthNet.uav[46] utilizationCountManeuversMission 458
scalar OsgEarthNet.uav[46] utilizationCountManeuversMaintenance 48
scalar OsgEarthNet.uav[46] utilizationCountChargeState 24
scalar OsgEarthNet.uav[46] utilizationCountOverdrawnAfterMission 0
scalar OsgEarthNet.uav[46] utilizationCountIdleState 24
scalar OsgEarthNet.uav[46] utilizationFail 0
scalar OsgEarthNet.uav[46] simulationTime 259200
scalar OsgEarthNet.uav[47] utilizationSecMission 20490.098714624
scalar OsgEarthNet.uav[47] utilizationSecMaintenance 14141.055082884
scalar OsgEarthNet.uav[47] utilizationSecCharge 133540
scalar OsgEarthNet.uav[47] utilizationSecIdle 91028.845202492
scalar OsgEarthNet.uav[47] utilizationEnergyMission 101137.3106308
scalar OsgEarthNet.uav[47] utilizationEnergyMaintenance 66365.089134216
scalar OsgEarthNet.uav[47] utilizationEnergyCharge 166859.5871582
scalar OsgEarthNet.uav[47] utilizationEnergyOverdrawMission 0
scalar OsgEarthNet.uav[47] utilizationEnergyOverdrawMaintenance 0
scalar OsgEarthNet.uav[47] utilizationCountMissions 41
scalar OsgEarthNet.uav[47] utilizationCountManeuversMission 734
scalar OsgEarthNet.uav[47] utilizationCountManeuversMaintenance 82
scalar OsgEarthNet.uav[47] utilizationCountChargeState 41
scalar OsgEarthNet.uav[47] utilizationCountOverdrawnAfterMission 0
scalar OsgEarthNet.uav[47] utilizationCountIdleState 42
scalar OsgEarthNet.uav[47] utilizationFail 0
scalar OsgEarthNet.uav[47] simulationTime 259200
scalar OsgEarthNet.uav[48] utilizationSecMission 40464.692834582
scalar OsgEarthNet.uav[48] utilizationSecMaintenance 18455.469351378
scalar OsgEarthNet.uav[48] utilizationSecCharge 196370
scalar OsgEarthNet.uav[48] utilizationSecIdle 3909.83681404
scalar OsgEarthNet.uav[48] utilizationEnergyMission 196364.87709596
scalar OsgEarthNet.uav[48] utilizationEnergyMaintenance 84679.88804245
scalar OsgEarthNet.uav[48] utilizationEnergyCharge 277711.95410156
scalar OsgEarthNet.uav[48] utilizationEnergyOverdrawMission 0
scalar OsgEarthNet.uav[48] utilizationEnergyOverdrawMaintenance 0
scalar OsgEarthNet.uav[48] utilizationCountMissions 61
scalar OsgEarthNet.uav[48] utilizationCountManeuversMission 1362
scalar OsgEarthNet.uav[48] utilizationCountManeuversMaintenance 123
scalar OsgEarthNet.uav[48] utilizationCountChargeState 61
scalar OsgEarthNet.uav[48] utilizationCountOverdrawnAfterMission 0
scalar OsgEarthNet.uav[48] utilizationCountIdleState 9
scalar OsgEarthNet.uav[48] utilizationFail 0
scalar OsgEarthNet.uav[48] simulationTime 259200
scalar OsgEarthNet.uav[49] utilizationSecMission 16554.166969217
scalar OsgEarthNet.uav[49] utilizationSecMaintenance 11473.113793982
scalar OsgEarthNet.uav[49] utilizationSecCharge 107140
scalar OsgEarthNet.uav[49] utilizationSecIdle 124032.7182368
scalar OsgEarthNet.uav[49] utilizationEnergyMission 80777.556274414
scalar OsgEarthNet.uav[49] utilizationEnergyMaintenance 55358.229492187
scalar OsgEarthNet.uav[49] utilizationEnergyCharge 135461.90234375
scalar OsgEarthNet.uav[49] utilizationEnergyOverdrawMission 0
scalar OsgEarthNet.uav[49] utilizationEnergyOverdrawMaintenance 0
scalar OsgEarthNet.uav[49] utilizationCountMissions 32
scalar OsgEarthNet.uav[49] utilizationCountManeuversMission 564
scalar OsgEarthNet.uav[49] utilizationCountManeuversMaintenance 64
scalar OsgEarthNet.uav[49] utilizationCountChargeState 32
scalar OsgEarthNet.uav[49] utilizationCountOverdrawnAfterMission 0
scalar OsgEarthNet.uav[49] utilizationCountIdleState 33
scalar OsgEarthNet.uav[49] utilizationFail 0
scalar OsgEarthNet.uav[49] simulationTime 259200
scalar OsgEarthNet.uav[50] utilizationSecMission 14656.509564553
scalar OsgEarthNet.uav[50] utilizationSecMaintenance 9046.7811876139
scalar OsgEarthNet.uav[50] utilizationSecCharge 86574.688247833
scalar OsgEarthNet.uav[50] utilizationSecIdle 148922.02
scalar OsgEarthNet.uav[50] utilizationEnergyMission 69881.933952332
scalar OsgEarthNet.uav[50] utilizationEnergyMaintenance 43690.765575409
scalar OsgEarthNet.uav[50] utilizationEnergyCharge 112851.41723633
scalar OsgEarthNet.uav[50] utilizationEnergyOverdrawMission 0
scalar OsgEarthNet.uav[50] utilizationEnergyOverdrawMaintenance 0
scalar OsgEarthNet.uav[50] utilizationCountMissions 25
scalar OsgEarthNet.uav[50] utilizationCountManeuversMission 468
scalar OsgEarthNet.uav[50] utilizationCountManeuversMaintenance 50
scalar OsgEarthNet.uav[50] utilizationCountChargeState 25
scalar OsgEarthNet.uav[50] utilizationCountOverdrawnAfterMission 0
scalar OsgEarthNet.uav[50] utilizationCountIdleState 25
scalar OsgEarthNet.uav[50] utilizationFail 0
scalar OsgEarthNet.uav[50] simulationTime 259200
scalar OsgEarthNet.uav[51] utilizationSecMission 18011.007584859
scalar OsgEarthNet.uav[51] utilizationSecMaintenance 12895.323237153
scalar OsgEarthNet.uav[51] utilizationSecCharge 117750
scalar OsgEarthNet.uav[51] utilizationSecIdle 110543.66817799
scalar OsgEarthNet.uav[51] utilizationEnergyMission 89558.141235352
scalar OsgEarthNet.uav[51] utilizationEnergyMaintenance 61372.919298633
scalar OsgEarthNet.uav[51] utilizationEnergyCharge 145514.43408203
scalar OsgEarthNet.uav[51] utilizationEnergyOverdrawMission 0
scalar OsgEarthNet.uav[51] utilizationEnergyOverdrawMaintenance 0
scalar OsgEarthNet.uav[51] utilizationCountMissions 38
scalar OsgEarthNet.uav[51] utilizationCountManeuversMission 639
scalar OsgEarthNet.uav[51] utilizationCountManeuversMaintenance 76
scalar OsgEarthNet.uav[51] utilizationCountChargeState 37
scalar OsgEarthNet.uav[51] utilizationCountOverdrawnAfterMission 0
scalar OsgEarthNet.uav[51] utilizationCountIdleState 38
scalar OsgEarthNet.uav[51] utilizationFail 0
scalar OsgEarthNet.uav[51] simulationTime 259200
scalar OsgEarthNet.uav[52] utilizationSecMission 41123.669785021
scalar OsgEarthNet.uav[52] utilizationSecMaintenance 18161.501836714
scalar OsgEarthNet.uav[52] utilizationSecCharge 197172.82437827
scalar OsgEarthNet.uav[52] utilizationSecIdle 2742.003
scalar OsgEarthNet.uav[52] utilizationEnergyMission 198392.03816986
scalar OsgEarthNet.uav[52] utilizationEnergyMaintenance 82633.753658295
scalar OsgEarthNet.uav[52] utilizationEnergyCharge 278187.80078125
scalar OsgEarthNet.uav[52] utilizationEnergyOverdrawMission 0
scalar OsgEarthNet.uav[52] utilizationEnergyOverdrawMaintenance 0
scalar OsgEarthNet.uav[52] utilizationCountMissions 61
scalar OsgEarthNet.uav[52] utilizationCountManeuversMission 1122
scalar OsgEarthNet.uav[52] utilizationCountManeuversMaintenance 122
scalar OsgEarthNet.uav[52] utilizationCountChargeState 61
scalar OsgEarthNet.uav[52] utilizationCountOverdrawnAfterMission 0
scalar OsgEarthNet.uav[52] utilizationCountIdleState 12
scalar OsgEarthNet.uav[52] utilizationFail 0
scalar OsgEarthNet.uav[52] simulationTime 259200
scalar OsgEarthNet.uav[53] utilizationSecMission 13295.368334472
scalar OsgEarthNet.uav[53] utilizationSecMaintenance 8210.2653464442
scalar OsgEarthNet.uav[53] utilizationSecCharge 80960
scalar OsgEarthNet.uav[53] utilizationSecIdle 156734.36531908
scalar OsgEarthNet.uav[53] utilizationEnergyMission 64881.462051392
scalar OsgEarthNet.uav[53] utilizationEnergyMaintenance 39170.654193878
scalar OsgEarthNet.uav[53] utilizationEnergyCharge 104299.18261719
scalar OsgEarthNet.uav[53] utilizationEnergyOverdrawMission 0
scalar OsgEarthNet.uav[53] utilizationEnergyOverdrawMaintenance 0
scalar OsgEarthNet.uav[53] utilizationCountMissions 23
scalar OsgEarthNet.uav[53] utilizationCountManeuversMission 435
scalar OsgEarthNet.uav[53] utilizationCountManeuversMaintenance 46
scalar OsgEarthNet.uav[53] utilizationCountChargeState 23
scalar OsgEarthNet.uav[53] utilizationCountOverdrawnAfterMission 0
scalar OsgEarthNet.uav[53] utilizationCountIdleState 24
scalar OsgEarthNet.uav[53] utilizationFail 0
scalar OsgEarthNet.uav[53] simulationTime 259200
scalar OsgEarthNet.uav[54] utilizationSecMission 16622.164090348
scalar OsgEarthNet.uav[54] utilizationSecMaintenance 12857.155000377
scalar OsgEarthNet.uav[54] utilizationSecCharge 117038.66790927
scalar OsgEarthNet.uav[54] utilizationSecIdle 112682.012
scalar OsgEarthNet.uav[54] utilizationEnergyMission 80517.721012115
scalar OsgEarthNet.uav[54] utilizationEnergyMaintenance 61140.970302582
scalar OsgEarthNet.uav[54] utilizationEnergyCharge 144802.61010742
scalar OsgEarthNet.uav[54] utilizationEnergyOverdrawMission 0
scalar OsgEarthNet.uav[54] utilizationEnergyOverdrawMaintenance 0
scalar OsgEarthNet.uav[54] utilizationCountMissions 37
scalar OsgEarthNet.uav[54] utilizationCountManeuversMission 636
scalar OsgEarthNet.uav[54] utilizationCountManeuversMaintenance 74
scalar OsgEarthNet.uav[54] utilizationCountChargeState 37
scalar OsgEarthNet.uav[54] utilizationCountOverdrawnAfterMission 0
scalar OsgEarthNet.uav[54] utilizationCountIdleState 37
scalar OsgEarthNet.uav[54] utilizationFail 0
scalar OsgEarthNet.uav[54] simulationTime 259200
scalar OsgEarthNet.uav[55] utilizationSecMission 40324.404740071
scalar OsgEarthNet.uav[55] utilizationSecMaintenance 18503.590259929
scalar OsgEarthNet.uav[55] utilizationSecCharge 197190
scalar OsgEarthNet.uav[55] utilizationSecIdle 3182.004
scalar OsgEarthNet.uav[55] utilizationEnergyMission 196664.02717972
scalar OsgEarthNet.uav[55] utilizationEnergyMaintenance 85048.335089382
scalar OsgEarthNet.uav[55] utilizationEnergyCharge 280356.8515625
scalar OsgEarthNet.uav[55] utilizationEnergyOverdrawMission 0
scalar OsgEarthNet.uav[55] utilizationEnergyOverdrawMaintenance 0
scalar OsgEarthNet.uav[55] utilizationCountMissions 61
scalar OsgEarthNet.uav[55] utilizationCountManeuversMission 1238
scalar OsgEarthNet.uav[55] utilizationCountManeuversMaintenance 123
scalar OsgEarthNet.uav[55] utilizationCountChargeState 61
scalar OsgEarthNet.uav[55] utilizationCountOverdrawnAfterMission 0
scalar OsgEarthNet.uav[55] utilizationCountIdleState 8
scalar OsgEarthNet.uav[55] utilizationFail 0
scalar OsgEarthNet.uav[55] simulationTime 259200
scalar OsgEarthNet.uav[56] utilizationSecMission 17790.532857537
scalar OsgEarthNet.uav[56] utilizationSecMaintenance 8957.4581424628
scalar OsgEarthNet.uav[56] utilizationSecCharge 98250
scalar OsgEarthNet.uav[56] utilizationSecIdle 134202.008
scalar OsgEarthNet.uav[56] utilizationEnergyMission 85639.643074035
scalar OsgEarthNet.uav[56] utilizationEnergyMaintenance 42556.50440979
scalar OsgEarthNet.uav[56] utilizationEnergyCharge 126440.33154297
scalar OsgEarthNet.uav[56] utilizationEnergyOverdrawMission 0
scalar OsgEarthNet.uav[56] utilizationEnergyOverdrawMaintenance 0
scalar OsgEarthNet.uav[56] utilizationCountMissions 28
scalar OsgEarthNet.uav[56] utilizationCountManeuversMission 492
scalar OsgEarthNet.uav[56] utilizationCountManeuversMaintenance 57
scalar OsgEarthNet.uav[56] utilizationCountChargeState 28
scalar OsgEarthNet.uav[56] utilizationCountOverdrawnAfterMission 0
scalar OsgEarthNet.uav[56] utilizationCountIdleState 29
scalar OsgEarthNet.uav[56] utilizationFail 0
scalar OsgEarthNet.uav[56] simulationTime 259200
scalar OsgEarthNet.uav[57] utilizationSecMission 20652.137675893
scalar OsgEarthNet.uav[57] utilizationSecMaintenance 13255.560422942
scalar OsgEarthNet.uav[57] utilizationSecCharge 127690.29690116
scalar OsgEarthNet.uav[57] utilizationSecIdle 97602.004
scalar OsgEarthNet.uav[57] utilizationEnergyMission 99658.11725235
scalar OsgEarthNet.uav[57] utilizationEnergyMaintenance 62871.676513672
scalar OsgEarthNet.uav[57] utilizationEnergyCharge 161369.87963867
scalar OsgEarthNet.uav[57] utilizationEnergyOverdrawMission 0
scalar OsgEarthNet.uav[57] utilizationEnergyOverdrawMaintenance 0
scalar OsgEarthNet.uav[57] utilizationCountMissions 39
scalar OsgEarthNet.uav[57] utilizationCountManeuversMission 691
scalar OsgEarthNet.uav[57] utilizationCountManeuversMaintenance 78
scalar OsgEarthNet.uav[57] utilizationCountChargeState 39
scalar OsgEarthNet.uav[57] utilizationCountOverdrawnAfterMission 0
scalar OsgEarthNet.uav[57] utilizationCountIdleState 39
scalar OsgEarthNet.uav[57] utilizationFail 0
scalar OsgEarthNet.uav[57] simulationTime 259200
scalar OsgEarthNet.uav[58] utilizationSecMission 41493.360775247
scalar OsgEarthNet.uav[58] utilizationSecMaintenance 17607.477361832
scalar OsgEarthNet.uav[58] utilizationSecCharge 197307.48781354
scalar OsgEarthNet.uav[58] utilizationSecIdle 2791.673049383
scalar OsgEarthNet.uav[58] utilizationEnergyMission 199314.25704193
scalar OsgEarthNet.uav[58] utilizationEnergyMaintenance 81413.034812927
scalar OsgEarthNet.uav[58] utilizationEnergyCharge 280706.72265625
scalar OsgEarthNet.uav[58] utilizationEnergyOverdrawMission 0
scalar OsgEarthNet.uav[58] utilizationEnergyOverdrawMaintenance 0
scalar OsgEarthNet.uav[58] utilizationCountMissions 61
scalar OsgEarthNet.uav[58] utilizationCountManeuversMission 1267
scalar OsgEarthNet.uav[58] utilizationCountManeuversMaintenance 122
scalar OsgEarthNet.uav[58] utilizationCountChargeState 61
scalar OsgEarthNet.uav[58] utilizationCountOverdrawnAfterMission 0
scalar OsgEarthNet.uav[58] utilizationCountIdleState 10
scalar OsgEarthNet.uav[58] utilizationFail 0
scalar OsgEarthNet.uav[58] simulationTime 259200
scalar OsgEarthNet.uav[59] utilizationSecMission 41727.967082208
scalar OsgEarthNet.uav[59] utilizationSecMaintenance 17451.687508635
scalar OsgEarthNet.uav[59] utilizationSecCharge 197544.32279796
scalar OsgEarthNet.uav[59] utilizationSecIdle 2476.0216111988
scalar OsgEarthNet.uav[59] utilizationEnergyMission 199242.22511292
scalar OsgEarthNet.uav[59] utilizationEnergyMaintenance 80698.933250427
scalar OsgEarthNet.uav[59] utilizationEnergyCharge 279248.52490234
scalar OsgEarthNet.uav[59] utilizationEnergyOverdrawMission 0
scalar OsgEarthNet.uav[59] utilizationEnergyOverdrawMaintenance 0
scalar OsgEarthNet.uav[59] utilizationCountMissions 61
scalar OsgEarthNet.uav[59] utilizationCountManeuversMission 1171
scalar OsgEarthNet.uav[59] utilizationCountManeuversMaintenance 122
scalar OsgEarthNet.uav[59] utilizationCountChargeState 61
scalar OsgEarthNet.uav[59] utilizationCountOverdrawnAfterMission 0
scalar OsgEarthNet.uav[59] utilizationCountIdleState 10
scalar OsgEarthNet.uav[59] utilizationFail 0
scalar OsgEarthNet.uav[59] simulationTime 259200
scalar OsgEarthNet.uav[60] utilizationSecMission 20898.494097373
scalar OsgEarthNet.uav[60] utilizationSecMaintenance 12755.630149716
scalar OsgEarthNet.uav[60] utilizationSecCharge 125483.87475291
scalar OsgEarthNet.uav[60] utilizationSecIdle 100062
scalar OsgEarthNet.uav[60] utilizationEnergyMission 101966.91880417
scalar OsgEarthNet.uav[60] utilizationEnergyMaintenance 60172.438919067
scalar OsgEarthNet.uav[60] utilizationEnergyCharge 162184.63134766
scalar OsgEarthNet.uav[60] utilizationEnergyOverdrawMission 0
scalar OsgEarthNet.uav[60] utilizationEnergyOverdrawMaintenance 0
scalar OsgEarthNet.uav[60] utilizationCountMissions 36
scalar OsgEarthNet.uav[60] utilizationCountManeuversMission 685
scalar OsgEarthNet.uav[60] utilizationCountManeuversMaintenance 72
scalar OsgEarthNet.uav[60] utilizationCountChargeState 36
scalar OsgEarthNet.uav[60] utilizationCountOverdrawnAfterMission 0
scalar OsgEarthNet.uav[60] utilizationCountIdleState 36
scalar OsgEarthNet.uav[60] utilizationFail 0
scalar OsgEarthNet.uav[60] simulationTime 259200
scalar OsgEarthNet.uav[61] utilizationSecMission 16004.616651343
scalar OsgEarthNet.uav[61] utilizationSecMaintenance 11712.979597956
scalar OsgEarthNet.uav[61] utilizationSecCharge 110040
scalar OsgEarthNet.uav[61] utilizationSecIdle 121442.4027507
scalar OsgEarthNet.uav[61] utilizationEnergyMission 75665.652980804
scalar OsgEarthNet.uav[61] utilizationEnergyMaintenance 55522.27885437
scalar OsgEarthNet.uav[61] utilizationEnergyCharge 133477.33056641
scalar OsgEarthNet.uav[61] utilizationEnergyOverdrawMission 0
scalar OsgEarthNet.uav[61] utilizationEnergyOverdrawMaintenance 0
scalar OsgEarthNet.uav[61] utilizationCountMissions 36
scalar OsgEarthNet.uav[61] utilizationCountManeuversMission 508
scalar OsgEarthNet.uav[61] utilizationCountManeuversMaintenance 72
scalar OsgEarthNet.uav[61] utilizationCountChargeState 36
scalar OsgEarthNet.uav[61] utilizationCountOverdrawnAfterMission 0
scalar OsgEarthNet.uav[61] utilizationCountIdleState 37
scalar OsgEarthNet.uav[61] utilizationFail 0
scalar OsgEarthNet.uav[61] simulationTime 259200
scalar OsgEarthNet.uav[62] utilizationSecMission 41115.900641004
scalar OsgEarthNet.uav[62] utilizationSecMaintenance 18681.76313924
scalar OsgEarthNet.uav[62] utilizationSecCharge 199030.33521976
scalar OsgEarthNet.uav[62] utilizationSecIdle 372
scalar OsgEarthNet.uav[62] utilizationEnergyMission 200498.7939682
scalar OsgEarthNet.uav[62] utilizationEnergyMaintenance 85920.986030579
scalar OsgEarthNet.uav[62] utilizationEnergyCharge 285851.23730469
scalar OsgEarthNet.uav[62] utilizationEnergyOverdrawMission 0
scalar OsgEarthNet.uav[62] utilizationEnergyOverdrawMaintenance 0
scalar OsgEarthNet.uav[62] utilizationCountMissions 62
scalar OsgEarthNet.uav[62] utilizationCountManeuversMission 1297
scalar OsgEarthNet.uav[62] utilizationCountManeuversMaintenance 124
scalar OsgEarthNet.uav[62] utilizationCountChargeState 62
scalar OsgEarthNet.uav[62] utilizationCountOverdrawnAfterMission 0
scalar OsgEarthNet.uav[62] utilizationCountIdleState 7
scalar OsgEarthNet.uav[62] utilizationFail 0
scalar OsgEarthNet.uav[62] simulationTime 259200
scalar OsgEarthNet.uav[63] utilizationSecMission 13944.376068062
scalar OsgEarthNet.uav[63] utilizationSecMaintenance 10115.306820423
scalar OsgEarthNet.uav[63] utilizationSecCharge 91860
scalar OsgEarthNet.uav[63] utilizationSecIdle 143280.31611151
scalar OsgEarthNet.uav[63] utilizationEnergyMission 70102.136623383
scalar OsgEarthNet.uav[63] utilizationEnergyMaintenance 48689.421836853
scalar OsgEarthNet.uav[63] utilizationEnergyCharge 118810.90673828
scalar OsgEarthNet.uav[63] utilizationEnergyOverdrawMission 0
scalar OsgEarthNet.uav[63] utilizationEnergyOverdrawMaintenance 3.9309196472168
scalar OsgEarthNet.uav[63] utilizationCountMissions 26
scalar OsgEarthNet.uav[63] utilizationCountManeuversMission 515
scalar OsgEarthNet.uav[63] utilizationCountManeuversMaintenance 52
scalar OsgEarthNet.uav[63] utilizationCountChargeState 26
scalar OsgEarthNet.uav[63] utilizationCountOverdrawnAfterMission 1
scalar OsgEarthNet.uav[63] utilizationCountIdleState 27
scalar OsgEarthNet.uav[63] utilizationFail 0
scalar OsgEarthNet.uav[63] simulationTime 259200
scalar OsgEarthNet.uav[64] utilizationSecMission 19860.553149742
scalar OsgEarthNet.uav[64] utilizationSecMaintenance 14135.029670999
scalar OsgEarthNet.uav[64] utilizationSecCharge 132490
scalar OsgEarthNet.uav[64] utilizationSecIdle 92714.41617926
scalar OsgEarthNet.uav[64] utilizationEnergyMission 98449.078388214
scalar OsgEarthNet.uav[64] utilizationEnergyMaintenance 66897.652244568
scalar OsgEarthNet.uav[64] utilizationEnergyCharge 164979.13500977
scalar OsgEarthNet.uav[64] utilizationEnergyOverdrawMission 0
scalar OsgEarthNet.uav[64] utilizationEnergyOverdrawMaintenance 0
scalar OsgEarthNet.uav[64] utilizationCountMissions 41
scalar OsgEarthNet.uav[64] utilizationCountManeuversMission 717
scalar OsgEarthNet.uav[64] utilizationCountManeuversMaintenance 82
scalar OsgEarthNet.uav[64] utilizationCountChargeState 41
scalar OsgEarthNet.uav[64] utilizationCountOverdrawnAfterMission 0
scalar OsgEarthNet.uav[64] utilizationCountIdleState 42
scalar OsgEarthNet.uav[64] utilizationFail 0
scalar OsgEarthNet.uav[64] simulationTime 259200
scalar OsgEarthNet.uav[65] utilizationSecMission 42585.994663545
scalar OsgEarthNet.uav[65] utilizationSecMaintenance 17069.781716586
scalar OsgEarthNet.uav[65] utilizationSecCharge 198452.22261987
[...]
scalar OsgEarthNet.uav[180] utilizationSecIdle 259199.999
scalar OsgEarthNet.uav[180] utilizationEnergyMission 0
scalar OsgEarthNet.uav[180] utilizationEnergyMaintenance 0
scalar OsgEarthNet.uav[180] utilizationEnergyCharge 0
scalar OsgEarthNet.uav[180] utilizationEnergyOverdrawMission 0
scalar OsgEarthNet.uav[180] utilizationEnergyOverdrawMaintenance 0
scalar OsgEarthNet.uav[180] utilizationCountMissions 0
scalar OsgEarthNet.uav[180] utilizationCountManeuversMission 0
scalar OsgEarthNet.uav[180] utilizationCountManeuversMaintenance 0
scalar OsgEarthNet.uav[180] utilizationCountChargeState 0
scalar OsgEarthNet.uav[180] utilizationCountOverdrawnAfterMission 0
scalar OsgEarthNet.uav[180] utilizationCountIdleState 1
scalar OsgEarthNet.uav[180] utilizationFail 0
scalar OsgEarthNet.uav[180] simulationTime 259200
scalar OsgEarthNet.uav[181] utilizationSecMission 0
scalar OsgEarthNet.uav[181] utilizationSecMaintenance 0
scalar OsgEarthNet.uav[181] utilizationSecCharge 0
scalar OsgEarthNet.uav[181] utilizationSecIdle 259199.999
scalar OsgEarthNet.uav[181] utilizationEnergyMission 0
scalar OsgEarthNet.uav[181] utilizationEnergyMaintenance 0
scalar OsgEarthNet.uav[181] utilizationEnergyCharge 0
scalar OsgEarthNet.uav[181] utilizationEnergyOverdrawMission 0
scalar OsgEarthNet.uav[181] utilizationEnergyOverdrawMaintenance 0
scalar OsgEarthNet.uav[181] utilizationCountMissions 0
scalar OsgEarthNet.uav[181] utilizationCountManeuversMission 0
scalar OsgEarthNet.uav[181] utilizationCountManeuversMaintenance 0
scalar OsgEarthNet.uav[181] utilizationCountChargeState 0
scalar OsgEarthNet.uav[181] utilizationCountOverdrawnAfterMission 0
scalar OsgEarthNet.uav[181] utilizationCountIdleState 1
scalar OsgEarthNet.uav[181] utilizationFail 0
scalar OsgEarthNet.uav[181] simulationTime 259200
scalar OsgEarthNet.uav[182] utilizationSecMission 0
scalar OsgEarthNet.uav[182] utilizationSecMaintenance 0
scalar OsgEarthNet.uav[182] utilizationSecCharge 0
scalar OsgEarthNet.uav[182] utilizationSecIdle 259199.999
scalar OsgEarthNet.uav[182] utilizationEnergyMission 0
scalar OsgEarthNet.uav[182] utilizationEnergyMaintenance 0
scalar OsgEarthNet.uav[182] utilizationEnergyCharge 0
scalar OsgEarthNet.uav[182] utilizationEnergyOverdrawMission 0
scalar OsgEarthNet.uav[182] utilizationEnergyOverdrawMaintenance 0
scalar OsgEarthNet.uav[182] utilizationCountMissions 0
scalar OsgEarthNet.uav[182] utilizationCountManeuversMission 0
scalar OsgEarthNet.uav[182] utilizationCountManeuversMaintenance 0
scalar OsgEarthNet.uav[182] utilizationCountChargeState 0
scalar OsgEarthNet.uav[182] utilizationCountOverdrawnAfterMission 0
scalar OsgEarthNet.uav[182] utilizationCountIdleState 1
scalar OsgEarthNet.uav[182] utilizationFail 0
scalar OsgEarthNet.uav[182] simulationTime 259200
scalar OsgEarthNet.uav[183] utilizationSecMission 0
scalar OsgEarthNet.uav[183] utilizationSecMaintenance 0
scalar OsgEarthNet.uav[183] utilizationSecCharge 0
scalar OsgEarthNet.uav[183] utilizationSecIdle 259199.999
scalar OsgEarthNet.uav[183] utilizationEnergyMission 0
scalar OsgEarthNet.uav[183] utilizationEnergyMaintenance 0
scalar OsgEarthNet.uav[183] utilizationEnergyCharge 0
scalar OsgEarthNet.uav[183] utilizationEnergyOverdrawMission 0
scalar OsgEarthNet.uav[183] utilizationEnergyOverdrawMaintenance 0
scalar OsgEarthNet.uav[183] utilizationCountMissions 0
scalar OsgEarthNet.uav[183] utilizationCountManeuversMission 0
scalar OsgEarthNet.uav[183] utilizationCountManeuversMaintenance 0
scalar OsgEarthNet.uav[183] utilizationCountChargeState 0
scalar OsgEarthNet.uav[183] utilizationCountOverdrawnAfterMission 0
scalar OsgEarthNet.uav[183] utilizationCountIdleState 1
scalar OsgEarthNet.uav[183] utilizationFail 0
scalar OsgEarthNet.uav[183] simulationTime 259200
scalar OsgEarthNet.uav[184] utilizationSecMission 0
scalar OsgEarthNet.uav[184] utilizationSecMaintenance 0
scalar OsgEarthNet.uav[184] utilizationSecCharge 0
scalar OsgEarthNet.uav[184] utilizationSecIdle 259199.999
scalar OsgEarthNet.uav[184] utilizationEnergyMission 0
scalar OsgEarthNet.uav[184] utilizationEnergyMaintenance 0
scalar OsgEarthNet.uav[184] utilizationEnergyCharge 0
scalar OsgEarthNet.uav[184] utilizationEnergyOverdrawMission 0
scalar OsgEarthNet.uav[184] utilizationEnergyOverdrawMaintenance 0
scalar OsgEarthNet.uav[184] utilizationCountMissions 0
scalar OsgEarthNet.uav[184] utilizationCountManeuversMission 0
scalar OsgEarthNet.uav[184] utilizationCountManeuversMaintenance 0
scalar OsgEarthNet.uav[184] utilizationCountChargeState 0
scalar OsgEarthNet.uav[184] utilizationCountOverdrawnAfterMission 0
scalar OsgEarthNet.uav[184] utilizationCountIdleState 1
scalar OsgEarthNet.uav[184] utilizationFail 0
scalar OsgEarthNet.uav[184] simulationTime 259200
scalar OsgEarthNet.uav[185] utilizationSecMission 0
scalar OsgEarthNet.uav[185] utilizationSecMaintenance 0
scalar OsgEarthNet.uav[185] utilizationSecCharge 0
scalar OsgEarthNet.uav[185] utilizationSecIdle 259199.999
scalar OsgEarthNet.uav[185] utilizationEnergyMission 0
scalar OsgEarthNet.uav[185] utilizationEnergyMaintenance 0
scalar OsgEarthNet.uav[185] utilizationEnergyCharge 0
scalar OsgEarthNet.uav[185] utilizationEnergyOverdrawMission 0
scalar OsgEarthNet.uav[185] utilizationEnergyOverdrawMaintenance 0
scalar OsgEarthNet.uav[185] utilizationCountMissions 0
scalar OsgEarthNet.uav[185] utilizationCountManeuversMission 0
scalar OsgEarthNet.uav[185] utilizationCountManeuversMaintenance 0
scalar OsgEarthNet.uav[185] utilizationCountChargeState 0
scalar OsgEarthNet.uav[185] utilizationCountOverdrawnAfterMission 0
scalar OsgEarthNet.uav[185] utilizationCountIdleState 1
scalar OsgEarthNet.uav[185] utilizationFail 0
scalar OsgEarthNet.uav[185] simulationTime 259200
scalar OsgEarthNet.uav[186] utilizationSecMission 0
scalar OsgEarthNet.uav[186] utilizationSecMaintenance 0
scalar OsgEarthNet.uav[186] utilizationSecCharge 0
scalar OsgEarthNet.uav[186] utilizationSecIdle 259199.999
scalar OsgEarthNet.uav[186] utilizationEnergyMission 0
scalar OsgEarthNet.uav[186] utilizationEnergyMaintenance 0
scalar OsgEarthNet.uav[186] utilizationEnergyCharge 0
scalar OsgEarthNet.uav[186] utilizationEnergyOverdrawMission 0
scalar OsgEarthNet.uav[186] utilizationEnergyOverdrawMaintenance 0
scalar OsgEarthNet.uav[186] utilizationCountMissions 0
scalar OsgEarthNet.uav[186] utilizationCountManeuversMission 0
scalar OsgEarthNet.uav[186] utilizationCountManeuversMaintenance 0
scalar OsgEarthNet.uav[186] utilizationCountChargeState 0
scalar OsgEarthNet.uav[186] utilizationCountOverdrawnAfterMission 0
scalar OsgEarthNet.uav[186] utilizationCountIdleState 1
scalar OsgEarthNet.uav[186] utilizationFail 0
scalar OsgEarthNet.uav[186] simulationTime 259200
scalar OsgEarthNet.uav[187] utilizationSecMission 0
scalar OsgEarthNet.uav[187] utilizationSecMaintenance 0
scalar OsgEarthNet.uav[187] utilizationSecCharge 0
scalar OsgEarthNet.uav[187] utilizationSecIdle 259199.999
scalar OsgEarthNet.uav[187] utilizationEnergyMission 0
scalar OsgEarthNet.uav[187] utilizationEnergyMaintenance 0
scalar OsgEarthNet.uav[187] utilizationEnergyCharge 0
scalar OsgEarthNet.uav[187] utilizationEnergyOverdrawMission 0
scalar OsgEarthNet.uav[187] utilizationEnergyOverdrawMaintenance 0
scalar OsgEarthNet.uav[187] utilizationCountMissions 0
scalar OsgEarthNet.uav[187] utilizationCountManeuversMission 0
scalar OsgEarthNet.uav[187] utilizationCountManeuversMaintenance 0
scalar OsgEarthNet.uav[187] utilizationCountChargeState 0
scalar OsgEarthNet.uav[187] utilizationCountOverdrawnAfterMission 0
scalar OsgEarthNet.uav[187] utilizationCountIdleState 1
scalar OsgEarthNet.uav[187] utilizationFail 0
scalar OsgEarthNet.uav[187] simulationTime 259200
scalar OsgEarthNet.uav[188] utilizationSecMission 0
scalar OsgEarthNet.uav[188] utilizationSecMaintenance 0
scalar OsgEarthNet.uav[188] utilizationSecCharge 0
scalar OsgEarthNet.uav[188] utilizationSecIdle 259199.999
scalar OsgEarthNet.uav[188] utilizationEnergyMission 0
scalar OsgEarthNet.uav[188] utilizationEnergyMaintenance 0
scalar OsgEarthNet.uav[188] utilizationEnergyCharge 0
scalar OsgEarthNet.uav[188] utilizationEnergyOverdrawMission 0
scalar OsgEarthNet.uav[188] utilizationEnergyOverdrawMaintenance 0
scalar OsgEarthNet.uav[188] utilizationCountMissions 0
scalar OsgEarthNet.uav[188] utilizationCountManeuversMission 0
scalar OsgEarthNet.uav[188] utilizationCountManeuversMaintenance 0
scalar OsgEarthNet.uav[188] utilizationCountChargeState 0
scalar OsgEarthNet.uav[188] utilizationCountOverdrawnAfterMission 0
scalar OsgEarthNet.uav[188] utilizationCountIdleState 1
scalar OsgEarthNet.uav[188] utilizationFail 0
scalar OsgEarthNet.uav[188] simulationTime 259200
scalar OsgEarthNet.uav[189] utilizationSecMission 0
scalar OsgEarthNet.uav[189] utilizationSecMaintenance 0
scalar OsgEarthNet.uav[189] utilizationSecCharge 0
scalar OsgEarthNet.uav[189] utilizationSecIdle 259199.999
scalar OsgEarthNet.uav[189] utilizationEnergyMission 0
scalar OsgEarthNet.uav[189] utilizationEnergyMaintenance 0
scalar OsgEarthNet.uav[189] utilizationEnergyCharge 0
scalar OsgEarthNet.uav[189] utilizationEnergyOverdrawMission 0
scalar OsgEarthNet.uav[189] utilizationEnergyOverdrawMaintenance 0
scalar OsgEarthNet.uav[189] utilizationCountMissions 0
scalar OsgEarthNet.uav[189] utilizationCountManeuversMission 0
scalar OsgEarthNet.uav[189] utilizationCountManeuversMaintenance 0
scalar OsgEarthNet.uav[189] utilizationCountChargeState 0
scalar OsgEarthNet.uav[189] utilizationCountOverdrawnAfterMission 0
scalar OsgEarthNet.uav[189] utilizationCountIdleState 1
scalar OsgEarthNet.uav[189] utilizationFail 0
scalar OsgEarthNet.uav[189] simulationTime 259200
scalar OsgEarthNet.uav[190] utilizationSecMission 0
scalar OsgEarthNet.uav[190] utilizationSecMaintenance 0
scalar OsgEarthNet.uav[190] utilizationSecCharge 0
scalar OsgEarthNet.uav[190] utilizationSecIdle 259199.999
scalar OsgEarthNet.uav[190] utilizationEnergyMission 0
scalar OsgEarthNet.uav[190] utilizationEnergyMaintenance 0
scalar OsgEarthNet.uav[190] utilizationEnergyCharge 0
scalar OsgEarthNet.uav[190] utilizationEnergyOverdrawMission 0
scalar OsgEarthNet.uav[190] utilizationEnergyOverdrawMaintenance 0
scalar OsgEarthNet.uav[190] utilizationCountMissions 0
scalar OsgEarthNet.uav[190] utilizationCountManeuversMission 0
scalar OsgEarthNet.uav[190] utilizationCountManeuversMaintenance 0
scalar OsgEarthNet.uav[190] utilizationCountChargeState 0
scalar OsgEarthNet.uav[190] utilizationCountOverdrawnAfterMission 0
scalar OsgEarthNet.uav[190] utilizationCountIdleState 1
scalar OsgEarthNet.uav[190] utilizationFail 0
scalar OsgEarthNet.uav[190] simulationTime 259200
scalar OsgEarthNet.uav[191] utilizationSecMission 0
scalar OsgEarthNet.uav[191] utilizationSecMaintenance 0
scalar OsgEarthNet.uav[191] utilizationSecCharge 0
scalar OsgEarthNet.uav[191] utilizationSecIdle 259199.999
scalar OsgEarthNet.uav[191] utilizationEnergyMission 0
scalar OsgEarthNet.uav[191] utilizationEnergyMaintenance 0
scalar OsgEarthNet.uav[191] utilizationEnergyCharge 0
scalar OsgEarthNet.uav[191] utilizationEnergyOverdrawMission 0
scalar OsgEarthNet.uav[191] utilizationEnergyOverdrawMaintenance 0
scalar OsgEarthNet.uav[191] utilizationCountMissions 0
scalar OsgEarthNet.uav[191] utilizationCountManeuversMission 0
scalar OsgEarthNet.uav[191] utilizationCountManeuversMaintenance 0
scalar OsgEarthNet.uav[191] utilizationCountChargeState 0
scalar OsgEarthNet.uav[191] utilizationCountOverdrawnAfterMission 0
scalar OsgEarthNet.uav[191] utilizationCountIdleState 1
scalar OsgEarthNet.uav[191] utilizationFail 0
scalar OsgEarthNet.uav[191] simulationTime 259200
scalar OsgEarthNet.uav[192] utilizationSecMission 0
scalar OsgEarthNet.uav[192] utilizationSecMaintenance 0
scalar OsgEarthNet.uav[192] utilizationSecCharge 0
scalar OsgEarthNet.uav[192] utilizationSecIdle 259199.999
scalar OsgEarthNet.uav[192] utilizationEnergyMission 0
scalar OsgEarthNet.uav[192] utilizationEnergyMaintenance 0
scalar OsgEarthNet.uav[192] utilizationEnergyCharge 0
scalar OsgEarthNet.uav[192] utilizationEnergyOverdrawMission 0
scalar OsgEarthNet.uav[192] utilizationEnergyOverdrawMaintenance 0
scalar OsgEarthNet.uav[192] utilizationCountMissions 0
scalar OsgEarthNet.uav[192] utilizationCountManeuversMission 0
scalar OsgEarthNet.uav[192] utilizationCountManeuversMaintenance 0
scalar OsgEarthNet.uav[192] utilizationCountChargeState 0
scalar OsgEarthNet.uav[192] utilizationCountOverdrawnAfterMission 0
scalar OsgEarthNet.uav[192] utilizationCountIdleState 1
scalar OsgEarthNet.uav[192] utilizationFail 0
scalar OsgEarthNet.uav[192] simulationTime 259200
scalar OsgEarthNet.uav[193] utilizationSecMission 0
scalar OsgEarthNet.uav[193] utilizationSecMaintenance 0
scalar OsgEarthNet.uav[193] utilizationSecCharge 0
scalar OsgEarthNet.uav[193] utilizationSecIdle 259199.999
scalar OsgEarthNet.uav[193] utilizationEnergyMission 0
scalar OsgEarthNet.uav[193] utilizationEnergyMaintenance 0
scalar OsgEarthNet.uav[193] utilizationEnergyCharge 0
scalar OsgEarthNet.uav[193] utilizationEnergyOverdrawMission 0
scalar OsgEarthNet.uav[193] utilizationEnergyOverdrawMaintenance 0
scalar OsgEarthNet.uav[193] utilizationCountMissions 0
scalar OsgEarthNet.uav[193] utilizationCountManeuversMission 0
scalar OsgEarthNet.uav[193] utilizationCountManeuversMaintenance 0
scalar OsgEarthNet.uav[193] utilizationCountChargeState 0
scalar OsgEarthNet.uav[193] utilizationCountOverdrawnAfterMission 0
scalar OsgEarthNet.uav[193] utilizationCountIdleState 1
scalar OsgEarthNet.uav[193] utilizationFail 0
scalar OsgEarthNet.uav[193] simulationTime 259200
scalar OsgEarthNet.uav[194] utilizationSecMission 0
scalar OsgEarthNet.uav[194] utilizationSecMaintenance 0
scalar OsgEarthNet.uav[194] utilizationSecCharge 0
scalar OsgEarthNet.uav[194] utilizationSecIdle 259199.999
scalar OsgEarthNet.uav[194] utilizationEnergyMission 0
scalar OsgEarthNet.uav[194] utilizationEnergyMaintenance 0
scalar OsgEarthNet.uav[194] utilizationEnergyCharge 0
scalar OsgEarthNet.uav[194] utilizationEnergyOverdrawMission 0
scalar OsgEarthNet.uav[194] utilizationEnergyOverdrawMaintenance 0
scalar OsgEarthNet.uav[194] utilizationCountMissions 0
scalar OsgEarthNet.uav[194] utilizationCountManeuversMission 0
scalar OsgEarthNet.uav[194] utilizationCountManeuversMaintenance 0
scalar OsgEarthNet.uav[194] utilizationCountChargeState 0
scalar OsgEarthNet.uav[194] utilizationCountOverdrawnAfterMission 0
scalar OsgEarthNet.uav[194] utilizationCountIdleState 1
scalar OsgEarthNet.uav[194] utilizationFail 0
scalar OsgEarthNet.uav[194] simulationTime 259200
scalar OsgEarthNet.uav[195] utilizationSecMission 0
scalar OsgEarthNet.uav[195] utilizationSecMaintenance 0
scalar OsgEarthNet.uav[195] utilizationSecCharge 0
scalar OsgEarthNet.uav[195] utilizationSecIdle 259199.999
scalar OsgEarthNet.uav[195] utilizationEnergyMission 0
scalar OsgEarthNet.uav[195] utilizationEnergyMaintenance 0
scalar OsgEarthNet.uav[195] utilizationEnergyCharge 0
scalar OsgEarthNet.uav[195] utilizationEnergyOverdrawMission 0
scalar OsgEarthNet.uav[195] utilizationEnergyOverdrawMaintenance 0
scalar OsgEarthNet.uav[195] utilizationCountMissions 0
scalar OsgEarthNet.uav[195] utilizationCountManeuversMission 0
scalar OsgEarthNet.uav[195] utilizationCountManeuversMaintenance 0
scalar OsgEarthNet.uav[195] utilizationCountChargeState 0
scalar OsgEarthNet.uav[195] utilizationCountOverdrawnAfterMission 0
scalar OsgEarthNet.uav[195] utilizationCountIdleState 1
scalar OsgEarthNet.uav[195] utilizationFail 0
scalar OsgEarthNet.uav[195] simulationTime 259200
scalar OsgEarthNet.uav[196] utilizationSecMission 0
scalar OsgEarthNet.uav[196] utilizationSecMaintenance 0
scalar OsgEarthNet.uav[196] utilizationSecCharge 0
scalar OsgEarthNet.uav[196] utilizationSecIdle 259199.999
scalar OsgEarthNet.uav[196] utilizationEnergyMission 0
scalar OsgEarthNet.uav[196] utilizationEnergyMaintenance 0
scalar OsgEarthNet.uav[196] utilizationEnergyCharge 0
scalar OsgEarthNet.uav[196] utilizationEnergyOverdrawMission 0
scalar OsgEarthNet.uav[196] utilizationEnergyOverdrawMaintenance 0
scalar OsgEarthNet.uav[196] utilizationCountMissions 0
scalar OsgEarthNet.uav[196] utilizationCountManeuversMission 0
scalar OsgEarthNet.uav[196] utilizationCountManeuversMaintenance 0
scalar OsgEarthNet.uav[196] utilizationCountChargeState 0
scalar OsgEarthNet.uav[196] utilizationCountOverdrawnAfterMission 0
scalar OsgEarthNet.uav[196] utilizationCountIdleState 1
scalar OsgEarthNet.uav[196] utilizationFail 0
scalar OsgEarthNet.uav[196] simulationTime 259200
scalar OsgEarthNet.uav[197] utilizationSecMission 0
scalar OsgEarthNet.uav[197] utilizationSecMaintenance 0
scalar OsgEarthNet.uav[197] utilizationSecCharge 0
scalar OsgEarthNet.uav[197] utilizationSecIdle 259199.999
scalar OsgEarthNet.uav[197] utilizationEnergyMission 0
scalar OsgEarthNet.uav[197] utilizationEnergyMaintenance 0
scalar OsgEarthNet.uav[197] utilizationEnergyCharge 0
scalar OsgEarthNet.uav[197] utilizationEnergyOverdrawMission 0
scalar OsgEarthNet.uav[197] utilizationEnergyOverdrawMaintenance 0
scalar OsgEarthNet.uav[197] utilizationCountMissions 0
scalar OsgEarthNet.uav[197] utilizationCountManeuversMission 0
scalar OsgEarthNet.uav[197] utilizationCountManeuversMaintenance 0
scalar OsgEarthNet.uav[197] utilizationCountChargeState 0
scalar OsgEarthNet.uav[197] utilizationCountOverdrawnAfterMission 0
scalar OsgEarthNet.uav[197] utilizationCountIdleState 1
scalar OsgEarthNet.uav[197] utilizationFail 0
scalar OsgEarthNet.uav[197] simulationTime 259200
scalar OsgEarthNet.uav[198] utilizationSecMission 0
scalar OsgEarthNet.uav[198] utilizationSecMaintenance 0
scalar OsgEarthNet.uav[198] utilizationSecCharge 0
scalar OsgEarthNet.uav[198] utilizationSecIdle 259199.999
scalar OsgEarthNet.uav[198] utilizationEnergyMission 0
scalar OsgEarthNet.uav[198] utilizationEnergyMaintenance 0
scalar OsgEarthNet.uav[198] utilizationEnergyCharge 0
scalar OsgEarthNet.uav[198] utilizationEnergyOverdrawMission 0
scalar OsgEarthNet.uav[198] utilizationEnergyOverdrawMaintenance 0
scalar OsgEarthNet.uav[198] utilizationCountMissions 0
scalar OsgEarthNet.uav[198] utilizationCountManeuversMission 0
scalar OsgEarthNet.uav[198] utilizationCountManeuversMaintenance 0
scalar OsgEarthNet.uav[198] utilizationCountChargeState 0
scalar OsgEarthNet.uav[198] utilizationCountOverdrawnAfterMission 0
scalar OsgEarthNet.uav[198] utilizationCountIdleState 1
scalar OsgEarthNet.uav[198] utilizationFail 0
scalar OsgEarthNet.uav[198] simulationTime 259200
scalar OsgEarthNet.uav[199] utilizationSecMission 0
scalar OsgEarthNet.uav[199] utilizationSecMaintenance 0
scalar OsgEarthNet.uav[199] utilizationSecCharge 0
scalar OsgEarthNet.uav[199] utilizationSecIdle 259199.999
scalar OsgEarthNet.uav[199] utilizationEnergyMission 0
scalar OsgEarthNet.uav[199] utilizationEnergyMaintenance 0
scalar OsgEarthNet.uav[199] utilizationEnergyCharge 0
scalar OsgEarthNet.uav[199] utilizationEnergyOverdrawMission 0
scalar OsgEarthNet.uav[199] utilizationEnergyOverdrawMaintenance 0
scalar OsgEarthNet.uav[199] utilizationCountMissions 0
scalar OsgEarthNet.uav[199] utilizationCountManeuversMission 0
scalar OsgEarthNet.uav[199] utilizationCountManeuversMaintenance 0
scalar OsgEarthNet.uav[199] utilizationCountChargeState 0
scalar OsgEarthNet.uav[199] utilizationCountOverdrawnAfterMission 0
scalar OsgEarthNet.uav[199] utilizationCountIdleState 1
scalar OsgEarthNet.uav[199] utilizationFail 0
scalar OsgEarthNet.uav[199] simulationTime 259200
scalar OsgEarthNet.cs[0] usedPower 3986399.0672002
scalar OsgEarthNet.cs[0] chargedPower 3986399.0672002
scalar OsgEarthNet.cs[0] chargedMobileNodes 876
scalar OsgEarthNet.cs[0] reservations 889
scalar OsgEarthNet.cs[1] usedPower 4159766.0966519
scalar OsgEarthNet.cs[1] chargedPower 4159766.0966519
scalar OsgEarthNet.cs[1] chargedMobileNodes 1039
scalar OsgEarthNet.cs[1] reservations 1052
scalar OsgEarthNet.cs[2] usedPower 8669758.1131476
scalar OsgEarthNet.cs[2] chargedPower 8669758.1131476
scalar OsgEarthNet.cs[2] chargedMobileNodes 271
scalar OsgEarthNet.cs[2] reservations 1895

