version 2
run Szenario_Hotel_Gabelbach-108-20180712-01:43:50-17448
attr configname Szenario_Hotel_Gabelbach
attr datetime 20180712-01:43:50
attr experiment Szenario_Hotel_Gabelbach
attr inifile omnetpp.ini
attr iterationvars "$replM=2, $biWeight=0.35, $replSearchM=1, $numUAVs=58"
attr iterationvarsf replM=2,biWeight=0.35,replSearchM=1,numUAVs=58-
attr measurement "$replM=2, $biWeight=0.35, $replSearchM=1, $numUAVs=58"
attr network OsgEarthNet
attr processid 17448
attr repetition 0
attr replication #0
attr resultdir results
attr runnumber 108
attr seedset 108
itervar biWeight 0.35
itervar numUAVs 58
itervar replM 2
itervar replSearchM 1
param *.osgEarthScene.scene "\"Szenario_Hotel_Gabelbach.earth\""
param *.playgroundLatitude 50.6830269
param *.playgroundLongitude 10.8538055
param *.playgroundWidth 3500m
param *.playgroundHeight 3500m
param *.cs[0].posX 3537m
param *.cs[0].posY 965m
param *.cs[0].posZ 538m
param *.cs[1].posX 312m
param *.cs[1].posY 1262m
param *.cs[1].posZ 539m
param *.cs[2].posX 2185m
param *.cs[2].posY 3026m
param *.cs[2].posZ 777m
param *.cs[3].posX 10m
param *.cs[3].posY 2200m
param *.cs[3].posZ 560m
param *.cs[4].posX 750m
param *.cs[4].posY 200m
param *.cs[4].posZ 540m
param *.cs[5].posX 2450m
param *.cs[5].posY 180m
param *.cs[5].posZ 524m
param *.cs[6].posX 3140m
param *.cs[6].posY 1790m
param *.cs[6].posZ 606m
param *.numCSs 3
param *.uav[*].replacementMethod 2
param *.uav[*].weightedSumWeight 0.35
param *.missionControl.replacementSearchMethod 1
param *.numUAVs 58
param *.numCSs 3
param *.numUAVs 100
param *.*.timeStep 10s
param *.uav[*].commandPreviewCommandCount 20
param *.missionControl.missionFiles "\"missions\\\\Szenario_WB_Hotel_Gabelbach_Mission_Hotel.waypoints,missions\\\\Szenario_WB_Hotel_Gabelbach_Mission_Kickelhahn.waypoints,missions\\\\Szenario_WB_Hotel_Gabelbach_Mission_Ilmenau_Sportplatz.waypoints,missions\\\\Szenario_WB_Hotel_Gabelbach_Mission_Manebach_Mitte.waypoints,missions\\\\Szenario_WB_Hotel_Gabelbach_Mission_Manebach_Sued.waypoints,missions\\\\Szenario_WB_Hotel_Gabelbach_Hover_HoheSchlaufe.waypoints,missions\\\\Szenario_WB_Hotel_Gabelbach_Hover_Kickelhahn.waypoints,missions\\\\Szenario_WB_Hotel_Gabelbach_Hover_Gabelbachskopf.waypoints,missions\\\\Szenario_WB_Hotel_Gabelbach_Hover_Dachskopf.waypoints\""
param *.uav[0].startX 3537m
param *.uav[0].startY 965m
param *.uav[0].startZ 539m
param *.uav[1].startX 312m
param *.uav[1].startY 1262m
param *.uav[1].startZ 540m
param *.uav[2].startX 2185m
param *.uav[2].startY 3026m
param *.uav[2].startZ 778m
param *.uav[3].startX 3537m
param *.uav[3].startY 965m
param *.uav[3].startZ 539m
param *.uav[4].startX 312m
param *.uav[4].startY 1262m
param *.uav[4].startZ 540m
param *.uav[5].startX 2185m
param *.uav[5].startY 3026m
param *.uav[5].startZ 778m
param *.uav[6].startX 3537m
param *.uav[6].startY 965m
param *.uav[6].startZ 539m
param *.uav[7].startX 312m
param *.uav[7].startY 1262m
param *.uav[7].startZ 540m
param *.uav[8].startX 2185m
param *.uav[8].startY 3026m
param *.uav[8].startZ 778m
param *.uav[9].startX 3537m
param *.uav[9].startY 965m
param *.uav[9].startZ 539m
param *.uav[10].startX 3537m
param *.uav[10].startY 965m
param *.uav[10].startZ 539m
param *.uav[11].startX 312m
param *.uav[11].startY 1262m
param *.uav[11].startZ 540m
param *.uav[12].startX 2185m
param *.uav[12].startY 3026m
param *.uav[12].startZ 778m
param *.uav[13].startX 3537m
param *.uav[13].startY 965m
param *.uav[13].startZ 539m
param *.uav[14].startX 312m
param *.uav[14].startY 1262m
param *.uav[14].startZ 540m
param *.uav[15].startX 2185m
param *.uav[15].startY 3026m
param *.uav[15].startZ 778m
param *.uav[16].startX 3537m
param *.uav[16].startY 965m
param *.uav[16].startZ 539m
param *.uav[17].startX 312m
param *.uav[17].startY 1262m
param *.uav[17].startZ 540m
param *.uav[18].startX 2185m
param *.uav[18].startY 3026m
param *.uav[18].startZ 778m
param *.uav[19].startX 3537m
param *.uav[19].startY 965m
param *.uav[19].startZ 539m
param *.uav[20].startX 3537m
param *.uav[20].startY 965m
param *.uav[20].startZ 539m
param *.uav[21].startX 312m
param *.uav[21].startY 1262m
param *.uav[21].startZ 540m
param *.uav[22].startX 2185m
param *.uav[22].startY 3026m
param *.uav[22].startZ 778m
param *.uav[23].startX 3537m
param *.uav[23].startY 965m
param *.uav[23].startZ 539m
param *.uav[24].startX 312m
param *.uav[24].startY 1262m
param *.uav[24].startZ 540m
param *.uav[25].startX 2185m
param *.uav[25].startY 3026m
param *.uav[25].startZ 778m
param *.uav[26].startX 3537m
param *.uav[26].startY 965m
param *.uav[26].startZ 539m
param *.uav[27].startX 312m
param *.uav[27].startY 1262m
param *.uav[27].startZ 540m
param *.uav[28].startX 2185m
param *.uav[28].startY 3026m
param *.uav[28].startZ 778m
param *.uav[29].startX 3537m
param *.uav[29].startY 965m
param *.uav[29].startZ 539m
param *.uav[30].startX 3537m
param *.uav[30].startY 965m
param *.uav[30].startZ 539m
param *.uav[31].startX 312m
param *.uav[31].startY 1262m
param *.uav[31].startZ 540m
param *.uav[32].startX 2185m
param *.uav[32].startY 3026m
param *.uav[32].startZ 778m
param *.uav[33].startX 3537m
param *.uav[33].startY 965m
param *.uav[33].startZ 539m
param *.uav[34].startX 312m
param *.uav[34].startY 1262m
param *.uav[34].startZ 540m
param *.uav[35].startX 2185m
param *.uav[35].startY 3026m
param *.uav[35].startZ 778m
param *.uav[36].startX 3537m
param *.uav[36].startY 965m
param *.uav[36].startZ 539m
param *.uav[37].startX 312m
param *.uav[37].startY 1262m
param *.uav[37].startZ 540m
param *.uav[38].startX 2185m
param *.uav[38].startY 3026m
param *.uav[38].startZ 778m
param *.uav[39].startX 3537m
param *.uav[39].startY 965m
param *.uav[39].startZ 539m
param *.uav[40].startX 3537m
param *.uav[40].startY 965m
param *.uav[40].startZ 539m
param *.uav[41].startX 312m
param *.uav[41].startY 1262m
param *.uav[41].startZ 540m
param *.uav[42].startX 2185m
param *.uav[42].startY 3026m
param *.uav[42].startZ 778m
param *.uav[43].startX 3537m
param *.uav[43].startY 965m
param *.uav[43].startZ 539m
param *.uav[44].startX 312m
param *.uav[44].startY 1262m
param *.uav[44].startZ 540m
param *.uav[45].startX 2185m
param *.uav[45].startY 3026m
param *.uav[45].startZ 778m
param *.uav[46].startX 3537m
param *.uav[46].startY 965m
param *.uav[46].startZ 539m
param *.uav[47].startX 312m
param *.uav[47].startY 1262m
param *.uav[47].startZ 540m
param *.uav[48].startX 2185m
param *.uav[48].startY 3026m
param *.uav[48].startZ 778m
param *.uav[49].startX 3537m
param *.uav[49].startY 965m
param *.uav[49].startZ 539m
param *.uav[50].startX 3537m
param *.uav[50].startY 965m
param *.uav[50].startZ 539m
param *.uav[51].startX 312m
param *.uav[51].startY 1262m
param *.uav[51].startZ 540m
param *.uav[52].startX 2185m
param *.uav[52].startY 3026m
param *.uav[52].startZ 778m
param *.uav[53].startX 3537m
param *.uav[53].startY 965m
param *.uav[53].startZ 539m
param *.uav[54].startX 312m
param *.uav[54].startY 1262m
param *.uav[54].startZ 540m
param *.uav[55].startX 2185m
param *.uav[55].startY 3026m
param *.uav[55].startZ 778m
param *.uav[56].startX 3537m
param *.uav[56].startY 965m
param *.uav[56].startZ 539m
param *.uav[57].startX 312m
param *.uav[57].startY 1262m
param *.uav[57].startZ 540m
param *.uav[58].startX 2185m
param *.uav[58].startY 3026m
param *.uav[58].startZ 778m
param *.uav[59].startX 3537m
param *.uav[59].startY 965m
param *.uav[59].startZ 539m
param *.uav[60].startX 3537m
param *.uav[60].startY 965m
param *.uav[60].startZ 539m
param *.uav[61].startX 312m
param *.uav[61].startY 1262m
param *.uav[61].startZ 540m
param *.uav[62].startX 2185m
param *.uav[62].startY 3026m
param *.uav[62].startZ 778m
param *.uav[63].startX 3537m
param *.uav[63].startY 965m
param *.uav[63].startZ 539m
param *.uav[64].startX 312m
param *.uav[64].startY 1262m
param *.uav[64].startZ 540m
param *.uav[65].startX 2185m
param *.uav[65].startY 3026m
param *.uav[65].startZ 778m
param *.uav[66].startX 3537m
param *.uav[66].startY 965m
param *.uav[66].startZ 539m
param *.uav[67].startX 312m
param *.uav[67].startY 1262m
param *.uav[67].startZ 540m
param *.uav[68].startX 2185m
param *.uav[68].startY 3026m
param *.uav[68].startZ 778m
param *.uav[69].startX 3537m
param *.uav[69].startY 965m
param *.uav[69].startZ 539m
param *.uav[70].startX 3537m
param *.uav[70].startY 965m
param *.uav[70].startZ 539m
param *.uav[71].startX 312m
param *.uav[71].startY 1262m
param *.uav[71].startZ 540m
param *.uav[72].startX 2185m
param *.uav[72].startY 3026m
param *.uav[72].startZ 778m
param *.uav[73].startX 3537m
param *.uav[73].startY 965m
param *.uav[73].startZ 539m
param *.uav[74].startX 312m
param *.uav[74].startY 1262m
param *.uav[74].startZ 540m
param *.uav[75].startX 2185m
param *.uav[75].startY 3026m
param *.uav[75].startZ 778m
param *.uav[76].startX 3537m
param *.uav[76].startY 965m
param *.uav[76].startZ 539m
param *.uav[77].startX 312m
param *.uav[77].startY 1262m
param *.uav[77].startZ 540m
param *.uav[78].startX 2185m
param *.uav[78].startY 3026m
param *.uav[78].startZ 778m
param *.uav[79].startX 3537m
param *.uav[79].startY 965m
param *.uav[79].startZ 539m
param *.uav[80].startX 3537m
param *.uav[80].startY 965m
param *.uav[80].startZ 539m
param *.uav[81].startX 312m
param *.uav[81].startY 1262m
param *.uav[81].startZ 540m
param *.uav[82].startX 2185m
param *.uav[82].startY 3026m
param *.uav[82].startZ 778m
param *.uav[83].startX 3537m
param *.uav[83].startY 965m
param *.uav[83].startZ 539m
param *.uav[84].startX 312m
param *.uav[84].startY 1262m
param *.uav[84].startZ 540m
param *.uav[85].startX 2185m
param *.uav[85].startY 3026m
param *.uav[85].startZ 778m
param *.uav[86].startX 3537m
param *.uav[86].startY 965m
param *.uav[86].startZ 539m
param *.uav[87].startX 312m
param *.uav[87].startY 1262m
param *.uav[87].startZ 540m
param *.uav[88].startX 2185m
param *.uav[88].startY 3026m
param *.uav[88].startZ 778m
param *.uav[89].startX 3537m
param *.uav[89].startY 965m
param *.uav[89].startZ 539m
param *.uav[90].startX 3537m
param *.uav[90].startY 965m
param *.uav[90].startZ 539m
param *.uav[91].startX 312m
param *.uav[91].startY 1262m
param *.uav[91].startZ 540m
param *.uav[92].startX 2185m
param *.uav[92].startY 3026m
param *.uav[92].startZ 778m
param *.uav[93].startX 3537m
param *.uav[93].startY 965m
param *.uav[93].startZ 539m
param *.uav[94].startX 312m
param *.uav[94].startY 1262m
param *.uav[94].startZ 540m
param *.uav[95].startX 2185m
param *.uav[95].startY 3026m
param *.uav[95].startZ 778m
param *.uav[96].startX 3537m
param *.uav[96].startY 965m
param *.uav[96].startZ 539m
param *.uav[97].startX 312m
param *.uav[97].startY 1262m
param *.uav[97].startZ 540m
param *.uav[98].startX 2185m
param *.uav[98].startY 3026m
param *.uav[98].startZ 778m
param *.uav[99].startX 3537m
param *.uav[99].startY 965m
param *.uav[99].startZ 539m
param *.osgEarthScene.scene "\"boston.earth\""
param *.playgroundLatitude 42.3558
param *.playgroundLongitude -71.0677
param *.playgroundWidth 400m
param *.playgroundHeight 200m
param *.channelController.connectionColor "\"#0000FF40\""
param *.channelController.showConnections false
param *.uav[*].modelURL "\"quadrocopter.small.obj.15.scale.0,0,90.rot\""
param *.uav[*].labelColor "\"#FF7C00CC\""
param *.uav[*].label2Color "\"#FF7C00EE\""
param *.uav[*].batteryCapacity 5200mAh
param *.uav[*].batteryRemaining uav[index].batteryCapacity
param *.uav[*].predictionQuantile 0.95
param *.uav[*].replacementMethod 2
param *.uav[*].weightedSumWeight 0.5
param *.cs[*].modelURL "\"chargingstation_v1.osgt.2.scale.0,0,0.rot.0,0,-15e-1.trans\""
param *.cs[*].spotsWaiting 999
param *.cs[*].spotsCharging 999
param *.cs[*].chargeEffectivenessPercentage 100
param *.cs[*].nonLinearPhaseStartPercentage 85
param *.cs[*].chargeCurrent 6.0A
param *.cs[*].prioritizeFastCharge true
param *.missionControl.replacementSearchMethod 0
param *.*.timeStep 9s

scalar OsgEarthNet.uav[0] utilizationSecMission 45061.262905214
scalar OsgEarthNet.uav[0] utilizationSecMaintenance 17858.422275962
scalar OsgEarthNet.uav[0] utilizationSecCharge 193448.16907888
scalar OsgEarthNet.uav[0] utilizationSecIdle 2832.1447399488
scalar OsgEarthNet.uav[0] utilizationEnergyMission 211955.42301941
scalar OsgEarthNet.uav[0] utilizationEnergyMaintenance 82874.629459381
scalar OsgEarthNet.uav[0] utilizationEnergyCharge 294375.96240234
scalar OsgEarthNet.uav[0] utilizationEnergyOverdrawMission 0
scalar OsgEarthNet.uav[0] utilizationEnergyOverdrawMaintenance 0
scalar OsgEarthNet.uav[0] utilizationCountMissions 65
scalar OsgEarthNet.uav[0] utilizationCountManeuversMission 1065
scalar OsgEarthNet.uav[0] utilizationCountManeuversMaintenance 130
scalar OsgEarthNet.uav[0] utilizationCountChargeState 65
scalar OsgEarthNet.uav[0] utilizationCountOverdrawnAfterMission 0
scalar OsgEarthNet.uav[0] utilizationCountIdleState 1
scalar OsgEarthNet.uav[0] utilizationFail 0
scalar OsgEarthNet.uav[0] simulationTime 259200
scalar OsgEarthNet.uav[1] utilizationSecMission 45041.240689766
scalar OsgEarthNet.uav[1] utilizationSecMaintenance 17923.315221543
scalar OsgEarthNet.uav[1] utilizationSecCharge 193570
scalar OsgEarthNet.uav[1] utilizationSecIdle 2665.443088691
scalar OsgEarthNet.uav[1] utilizationEnergyMission 214841.44127851
scalar OsgEarthNet.uav[1] utilizationEnergyMaintenance 82066.900630951
scalar OsgEarthNet.uav[1] utilizationEnergyCharge 294795.13818359
scalar OsgEarthNet.uav[1] utilizationEnergyOverdrawMission 0
scalar OsgEarthNet.uav[1] utilizationEnergyOverdrawMaintenance 0
scalar OsgEarthNet.uav[1] utilizationCountMissions 65
scalar OsgEarthNet.uav[1] utilizationCountManeuversMission 1160
scalar OsgEarthNet.uav[1] utilizationCountManeuversMaintenance 131
scalar OsgEarthNet.uav[1] utilizationCountChargeState 65
scalar OsgEarthNet.uav[1] utilizationCountOverdrawnAfterMission 0
scalar OsgEarthNet.uav[1] utilizationCountIdleState 1
scalar OsgEarthNet.uav[1] utilizationFail 0
scalar OsgEarthNet.uav[1] simulationTime 259200
scalar OsgEarthNet.uav[2] utilizationSecMission 43074.834924427
scalar OsgEarthNet.uav[2] utilizationSecMaintenance 19552.276348791
scalar OsgEarthNet.uav[2] utilizationSecCharge 194313.25664612
scalar OsgEarthNet.uav[2] utilizationSecIdle 2259.6310806652
scalar OsgEarthNet.uav[2] utilizationEnergyMission 209044.97565079
scalar OsgEarthNet.uav[2] utilizationEnergyMaintenance 90091.402683258
scalar OsgEarthNet.uav[2] utilizationEnergyCharge 300183.12646484
scalar OsgEarthNet.uav[2] utilizationEnergyOverdrawMission 0
scalar OsgEarthNet.uav[2] utilizationEnergyOverdrawMaintenance 0
scalar OsgEarthNet.uav[2] utilizationCountMissions 67
scalar OsgEarthNet.uav[2] utilizationCountManeuversMission 1473
scalar OsgEarthNet.uav[2] utilizationCountManeuversMaintenance 134
scalar OsgEarthNet.uav[2] utilizationCountChargeState 67
scalar OsgEarthNet.uav[2] utilizationCountOverdrawnAfterMission 0
scalar OsgEarthNet.uav[2] utilizationCountIdleState 2
scalar OsgEarthNet.uav[2] utilizationFail 0
scalar OsgEarthNet.uav[2] simulationTime 259200
scalar OsgEarthNet.uav[3] utilizationSecMission 37734.378509347
scalar OsgEarthNet.uav[3] utilizationSecMaintenance 25734.374534396
scalar OsgEarthNet.uav[3] utilizationSecCharge 193359.24095626
scalar OsgEarthNet.uav[3] utilizationSecIdle 2372.005
scalar OsgEarthNet.uav[3] utilizationEnergyMission 183475.28347778
scalar OsgEarthNet.uav[3] utilizationEnergyMaintenance 121721.88065338
scalar OsgEarthNet.uav[3] utilizationEnergyCharge 301182.07458496
scalar OsgEarthNet.uav[3] utilizationEnergyOverdrawMission 0
scalar OsgEarthNet.uav[3] utilizationEnergyOverdrawMaintenance 0
scalar OsgEarthNet.uav[3] utilizationCountMissions 70
scalar OsgEarthNet.uav[3] utilizationCountManeuversMission 1288
scalar OsgEarthNet.uav[3] utilizationCountManeuversMaintenance 140
scalar OsgEarthNet.uav[3] utilizationCountChargeState 70
scalar OsgEarthNet.uav[3] utilizationCountOverdrawnAfterMission 0
scalar OsgEarthNet.uav[3] utilizationCountIdleState 2
scalar OsgEarthNet.uav[3] utilizationFail 0
scalar OsgEarthNet.uav[3] simulationTime 259200
scalar OsgEarthNet.uav[4] utilizationSecMission 39848.751990778
scalar OsgEarthNet.uav[4] utilizationSecMaintenance 20176.142022557
scalar OsgEarthNet.uav[4] utilizationSecCharge 195893.09998667
scalar OsgEarthNet.uav[4] utilizationSecIdle 3282.005
scalar OsgEarthNet.uav[4] utilizationEnergyMission 193645.35338593
scalar OsgEarthNet.uav[4] utilizationEnergyMaintenance 94759.626838684
scalar OsgEarthNet.uav[4] utilizationEnergyCharge 284659.34472656
scalar OsgEarthNet.uav[4] utilizationEnergyOverdrawMission 0
scalar OsgEarthNet.uav[4] utilizationEnergyOverdrawMaintenance 0
scalar OsgEarthNet.uav[4] utilizationCountMissions 66
scalar OsgEarthNet.uav[4] utilizationCountManeuversMission 1134
scalar OsgEarthNet.uav[4] utilizationCountManeuversMaintenance 132
scalar OsgEarthNet.uav[4] utilizationCountChargeState 66
scalar OsgEarthNet.uav[4] utilizationCountOverdrawnAfterMission 0
scalar OsgEarthNet.uav[4] utilizationCountIdleState 5
scalar OsgEarthNet.uav[4] utilizationFail 0
scalar OsgEarthNet.uav[4] simulationTime 259200
scalar OsgEarthNet.uav[5] utilizationSecMission 44951.572512548
scalar OsgEarthNet.uav[5] utilizationSecMaintenance 18952.192079469
scalar OsgEarthNet.uav[5] utilizationSecCharge 195294.23440798
scalar OsgEarthNet.uav[5] utilizationSecIdle 2
scalar OsgEarthNet.uav[5] utilizationEnergyMission 217613.0968379
scalar OsgEarthNet.uav[5] utilizationEnergyMaintenance 88776.999195099
scalar OsgEarthNet.uav[5] utilizationEnergyCharge 299742.07226562
scalar OsgEarthNet.uav[5] utilizationEnergyOverdrawMission 0
scalar OsgEarthNet.uav[5] utilizationEnergyOverdrawMaintenance 0
scalar OsgEarthNet.uav[5] utilizationCountMissions 67
scalar OsgEarthNet.uav[5] utilizationCountManeuversMission 1379
scalar OsgEarthNet.uav[5] utilizationCountManeuversMaintenance 133
scalar OsgEarthNet.uav[5] utilizationCountChargeState 67
scalar OsgEarthNet.uav[5] utilizationCountOverdrawnAfterMission 0
scalar OsgEarthNet.uav[5] utilizationCountIdleState 1
scalar OsgEarthNet.uav[5] utilizationFail 0
scalar OsgEarthNet.uav[5] simulationTime 259200
scalar OsgEarthNet.uav[6] utilizationSecMission 36291.175828654
scalar OsgEarthNet.uav[6] utilizationSecMaintenance 25826.820171347
scalar OsgEarthNet.uav[6] utilizationSecCharge 195420
scalar OsgEarthNet.uav[6] utilizationSecIdle 1662.003
scalar OsgEarthNet.uav[6] utilizationEnergyMission 178942.43149948
scalar OsgEarthNet.uav[6] utilizationEnergyMaintenance 122846.53347768
scalar OsgEarthNet.uav[6] utilizationEnergyCharge 298673.35742188
scalar OsgEarthNet.uav[6] utilizationEnergyOverdrawMission 0
scalar OsgEarthNet.uav[6] utilizationEnergyOverdrawMaintenance 0
scalar OsgEarthNet.uav[6] utilizationCountMissions 69
scalar OsgEarthNet.uav[6] utilizationCountManeuversMission 1268
scalar OsgEarthNet.uav[6] utilizationCountManeuversMaintenance 139
scalar OsgEarthNet.uav[6] utilizationCountChargeState 69
scalar OsgEarthNet.uav[6] utilizationCountOverdrawnAfterMission 0
scalar OsgEarthNet.uav[6] utilizationCountIdleState 3
scalar OsgEarthNet.uav[6] utilizationFail 0
scalar OsgEarthNet.uav[6] simulationTime 259200
scalar OsgEarthNet.uav[7] utilizationSecMission 33288.295422987
scalar OsgEarthNet.uav[7] utilizationSecMaintenance 23339.703577013
scalar OsgEarthNet.uav[7] utilizationSecCharge 201590
scalar OsgEarthNet.uav[7] utilizationSecIdle 982
scalar OsgEarthNet.uav[7] utilizationEnergyMission 163079.37745299
scalar OsgEarthNet.uav[7] utilizationEnergyMaintenance 109805.37614441
scalar OsgEarthNet.uav[7] utilizationEnergyCharge 273714.97558594
scalar OsgEarthNet.uav[7] utilizationEnergyOverdrawMission 0
scalar OsgEarthNet.uav[7] utilizationEnergyOverdrawMaintenance 0
scalar OsgEarthNet.uav[7] utilizationCountMissions 68
scalar OsgEarthNet.uav[7] utilizationCountManeuversMission 1163
scalar OsgEarthNet.uav[7] utilizationCountManeuversMaintenance 136
scalar OsgEarthNet.uav[7] utilizationCountChargeState 68
scalar OsgEarthNet.uav[7] utilizationCountOverdrawnAfterMission 0
scalar OsgEarthNet.uav[7] utilizationCountIdleState 10
scalar OsgEarthNet.uav[7] utilizationFail 0
scalar OsgEarthNet.uav[7] simulationTime 259200
scalar OsgEarthNet.uav[8] utilizationSecMission 43866.984782648
scalar OsgEarthNet.uav[8] utilizationSecMaintenance 19590.305795995
scalar OsgEarthNet.uav[8] utilizationSecCharge 193720.70542136
scalar OsgEarthNet.uav[8] utilizationSecIdle 2022.003
scalar OsgEarthNet.uav[8] utilizationEnergyMission 211087.07731628
scalar OsgEarthNet.uav[8] utilizationEnergyMaintenance 90713.404079437
scalar OsgEarthNet.uav[8] utilizationEnergyCharge 300051.37097168
scalar OsgEarthNet.uav[8] utilizationEnergyOverdrawMission 0
scalar OsgEarthNet.uav[8] utilizationEnergyOverdrawMaintenance 0
scalar OsgEarthNet.uav[8] utilizationCountMissions 67
scalar OsgEarthNet.uav[8] utilizationCountManeuversMission 1373
scalar OsgEarthNet.uav[8] utilizationCountManeuversMaintenance 134
scalar OsgEarthNet.uav[8] utilizationCountChargeState 67
scalar OsgEarthNet.uav[8] utilizationCountOverdrawnAfterMission 0
scalar OsgEarthNet.uav[8] utilizationCountIdleState 1
scalar OsgEarthNet.uav[8] utilizationFail 0
scalar OsgEarthNet.uav[8] simulationTime 259200
scalar OsgEarthNet.uav[9] utilizationSecMission 38149.906475715
scalar OsgEarthNet.uav[9] utilizationSecMaintenance 24358.090524285
scalar OsgEarthNet.uav[9] utilizationSecCharge 194950
scalar OsgEarthNet.uav[9] utilizationSecIdle 1742.002
scalar OsgEarthNet.uav[9] utilizationEnergyMission 183617.9310241
scalar OsgEarthNet.uav[9] utilizationEnergyMaintenance 116157.58411407
scalar OsgEarthNet.uav[9] utilizationEnergyCharge 301415.10595703
scalar OsgEarthNet.uav[9] utilizationEnergyOverdrawMission 0
scalar OsgEarthNet.uav[9] utilizationEnergyOverdrawMaintenance 0
scalar OsgEarthNet.uav[9] utilizationCountMissions 69
scalar OsgEarthNet.uav[9] utilizationCountManeuversMission 1205
scalar OsgEarthNet.uav[9] utilizationCountManeuversMaintenance 139
scalar OsgEarthNet.uav[9] utilizationCountChargeState 69
scalar OsgEarthNet.uav[9] utilizationCountOverdrawnAfterMission 0
scalar OsgEarthNet.uav[9] utilizationCountIdleState 6
scalar OsgEarthNet.uav[9] utilizationFail 0
scalar OsgEarthNet.uav[9] simulationTime 259200
scalar OsgEarthNet.uav[10] utilizationSecMission 37495.439701777
scalar OsgEarthNet.uav[10] utilizationSecMaintenance 21877.747272055
scalar OsgEarthNet.uav[10] utilizationSecCharge 194962.79375644
scalar OsgEarthNet.uav[10] utilizationSecIdle 4864.0182697282
scalar OsgEarthNet.uav[10] utilizationEnergyMission 183063.56283188
scalar OsgEarthNet.uav[10] utilizationEnergyMaintenance 103942.38214111
scalar OsgEarthNet.uav[10] utilizationEnergyCharge 285634.88476562
scalar OsgEarthNet.uav[10] utilizationEnergyOverdrawMission 0
scalar OsgEarthNet.uav[10] utilizationEnergyOverdrawMaintenance 0
scalar OsgEarthNet.uav[10] utilizationCountMissions 66
scalar OsgEarthNet.uav[10] utilizationCountManeuversMission 1182
scalar OsgEarthNet.uav[10] utilizationCountManeuversMaintenance 132
scalar OsgEarthNet.uav[10] utilizationCountChargeState 66
scalar OsgEarthNet.uav[10] utilizationCountOverdrawnAfterMission 0
scalar OsgEarthNet.uav[10] utilizationCountIdleState 8
scalar OsgEarthNet.uav[10] utilizationFail 0
scalar OsgEarthNet.uav[10] simulationTime 259200
scalar OsgEarthNet.uav[11] utilizationSecMission 36197.186945862
scalar OsgEarthNet.uav[11] utilizationSecMaintenance 24299.038354937
scalar OsgEarthNet.uav[11] utilizationSecCharge 195566.45761737
scalar OsgEarthNet.uav[11] utilizationSecIdle 3137.3160818306
scalar OsgEarthNet.uav[11] utilizationEnergyMission 179280.85862732
scalar OsgEarthNet.uav[11] utilizationEnergyMaintenance 115170.97468567
scalar OsgEarthNet.uav[11] utilizationEnergyCharge 290212.2800293
scalar OsgEarthNet.uav[11] utilizationEnergyOverdrawMission 0
scalar OsgEarthNet.uav[11] utilizationEnergyOverdrawMaintenance 0
scalar OsgEarthNet.uav[11] utilizationCountMissions 67
scalar OsgEarthNet.uav[11] utilizationCountManeuversMission 1253
scalar OsgEarthNet.uav[11] utilizationCountManeuversMaintenance 134
scalar OsgEarthNet.uav[11] utilizationCountChargeState 67
scalar OsgEarthNet.uav[11] utilizationCountOverdrawnAfterMission 0
scalar OsgEarthNet.uav[11] utilizationCountIdleState 9
scalar OsgEarthNet.uav[11] utilizationFail 0
scalar OsgEarthNet.uav[11] simulationTime 259200
scalar OsgEarthNet.uav[12] utilizationSecMission 43916.393136035
scalar OsgEarthNet.uav[12] utilizationSecMaintenance 19128.685845641
scalar OsgEarthNet.uav[12] utilizationSecCharge 195387.46975429
scalar OsgEarthNet.uav[12] utilizationSecIdle 767.4502640309
scalar OsgEarthNet.uav[12] utilizationEnergyMission 213301.32941437
scalar OsgEarthNet.uav[12] utilizationEnergyMaintenance 88619.252700806
scalar OsgEarthNet.uav[12] utilizationEnergyCharge 301819.13623047
scalar OsgEarthNet.uav[12] utilizationEnergyOverdrawMission 0
scalar OsgEarthNet.uav[12] utilizationEnergyOverdrawMaintenance 0
scalar OsgEarthNet.uav[12] utilizationCountMissions 67
scalar OsgEarthNet.uav[12] utilizationCountManeuversMission 1358
scalar OsgEarthNet.uav[12] utilizationCountManeuversMaintenance 134
scalar OsgEarthNet.uav[12] utilizationCountChargeState 67
scalar OsgEarthNet.uav[12] utilizationCountOverdrawnAfterMission 0
scalar OsgEarthNet.uav[12] utilizationCountIdleState 1
scalar OsgEarthNet.uav[12] utilizationFail 0
scalar OsgEarthNet.uav[12] simulationTime 259200
scalar OsgEarthNet.uav[13] utilizationSecMission 31800.394561167
scalar OsgEarthNet.uav[13] utilizationSecMaintenance 24320.294519765
scalar OsgEarthNet.uav[13] utilizationSecCharge 198947.30391907
scalar OsgEarthNet.uav[13] utilizationSecIdle 4132.006
scalar OsgEarthNet.uav[13] utilizationEnergyMission 156014.85030746
scalar OsgEarthNet.uav[13] utilizationEnergyMaintenance 115368.35941315
scalar OsgEarthNet.uav[13] utilizationEnergyCharge 267759.57788086
scalar OsgEarthNet.uav[13] utilizationEnergyOverdrawMission 0
scalar OsgEarthNet.uav[13] utilizationEnergyOverdrawMaintenance 0
scalar OsgEarthNet.uav[13] utilizationCountMissions 70
scalar OsgEarthNet.uav[13] utilizationCountManeuversMission 1115
scalar OsgEarthNet.uav[13] utilizationCountManeuversMaintenance 140
scalar OsgEarthNet.uav[13] utilizationCountChargeState 70
scalar OsgEarthNet.uav[13] utilizationCountOverdrawnAfterMission 0
scalar OsgEarthNet.uav[13] utilizationCountIdleState 13
scalar OsgEarthNet.uav[13] utilizationFail 0
scalar OsgEarthNet.uav[13] simulationTime 259200
scalar OsgEarthNet.uav[14] utilizationSecMission 32901.313099346
scalar OsgEarthNet.uav[14] utilizationSecMaintenance 23570.81181245
scalar OsgEarthNet.uav[14] utilizationSecCharge 200415.87258148
scalar OsgEarthNet.uav[14] utilizationSecIdle 2312.0015067221
scalar OsgEarthNet.uav[14] utilizationEnergyMission 160444.06036377
scalar OsgEarthNet.uav[14] utilizationEnergyMaintenance 111948.40466309
scalar OsgEarthNet.uav[14] utilizationEnergyCharge 270908.51733398
scalar OsgEarthNet.uav[14] utilizationEnergyOverdrawMission 0
scalar OsgEarthNet.uav[14] utilizationEnergyOverdrawMaintenance 0
scalar OsgEarthNet.uav[14] utilizationCountMissions 71
scalar OsgEarthNet.uav[14] utilizationCountManeuversMission 1070
scalar OsgEarthNet.uav[14] utilizationCountManeuversMaintenance 142
scalar OsgEarthNet.uav[14] utilizationCountChargeState 71
scalar OsgEarthNet.uav[14] utilizationCountOverdrawnAfterMission 0
scalar OsgEarthNet.uav[14] utilizationCountIdleState 14
scalar OsgEarthNet.uav[14] utilizationFail 0
scalar OsgEarthNet.uav[14] simulationTime 259200
scalar OsgEarthNet.uav[15] utilizationSecMission 35883.0778106
scalar OsgEarthNet.uav[15] utilizationSecMaintenance 24517.74607899
scalar OsgEarthNet.uav[15] utilizationSecCharge 197750
scalar OsgEarthNet.uav[15] utilizationSecIdle 1049.1751104107
scalar OsgEarthNet.uav[15] utilizationEnergyMission 174235.34048832
scalar OsgEarthNet.uav[15] utilizationEnergyMaintenance 116603.53808594
scalar OsgEarthNet.uav[15] utilizationEnergyCharge 290955.06542969
scalar OsgEarthNet.uav[15] utilizationEnergyOverdrawMission 0
scalar OsgEarthNet.uav[15] utilizationEnergyOverdrawMaintenance 0
scalar OsgEarthNet.uav[15] utilizationCountMissions 72
scalar OsgEarthNet.uav[15] utilizationCountManeuversMission 1104
scalar OsgEarthNet.uav[15] utilizationCountManeuversMaintenance 145
scalar OsgEarthNet.uav[15] utilizationCountChargeState 72
scalar OsgEarthNet.uav[15] utilizationCountOverdrawnAfterMission 0
scalar OsgEarthNet.uav[15] utilizationCountIdleState 5
scalar OsgEarthNet.uav[15] utilizationFail 0
scalar OsgEarthNet.uav[15] simulationTime 259200
scalar OsgEarthNet.uav[16] utilizationSecMission 35667.075599446
scalar OsgEarthNet.uav[16] utilizationSecMaintenance 24313.279166366
scalar OsgEarthNet.uav[16] utilizationSecCharge 198957.64423419
scalar OsgEarthNet.uav[16] utilizationSecIdle 262
scalar OsgEarthNet.uav[16] utilizationEnergyMission 173100.96308899
scalar OsgEarthNet.uav[16] utilizationEnergyMaintenance 114794.2918663
scalar OsgEarthNet.uav[16] utilizationEnergyCharge 289365.80102539
scalar OsgEarthNet.uav[16] utilizationEnergyOverdrawMission 0
scalar OsgEarthNet.uav[16] utilizationEnergyOverdrawMaintenance 0
scalar OsgEarthNet.uav[16] utilizationCountMissions 69
scalar OsgEarthNet.uav[16] utilizationCountManeuversMission 1223
scalar OsgEarthNet.uav[16] utilizationCountManeuversMaintenance 138
scalar OsgEarthNet.uav[16] utilizationCountChargeState 69
scalar OsgEarthNet.uav[16] utilizationCountOverdrawnAfterMission 0
scalar OsgEarthNet.uav[16] utilizationCountIdleState 3
scalar OsgEarthNet.uav[16] utilizationFail 0
scalar OsgEarthNet.uav[16] simulationTime 259200
scalar OsgEarthNet.uav[17] utilizationSecMission 34290.824880811
scalar OsgEarthNet.uav[17] utilizationSecMaintenance 24684.990538582
scalar OsgEarthNet.uav[17] utilizationSecCharge 198772.18158061
scalar OsgEarthNet.uav[17] utilizationSecIdle 1452.002
scalar OsgEarthNet.uav[17] utilizationEnergyMission 169286.37932968
scalar OsgEarthNet.uav[17] utilizationEnergyMaintenance 116257.51706696
scalar OsgEarthNet.uav[17] utilizationEnergyCharge 284838.5378418
scalar OsgEarthNet.uav[17] utilizationEnergyOverdrawMission 0
scalar OsgEarthNet.uav[17] utilizationEnergyOverdrawMaintenance 0
scalar OsgEarthNet.uav[17] utilizationCountMissions 69
scalar OsgEarthNet.uav[17] utilizationCountManeuversMission 1212
scalar OsgEarthNet.uav[17] utilizationCountManeuversMaintenance 138
scalar OsgEarthNet.uav[17] utilizationCountChargeState 69
scalar OsgEarthNet.uav[17] utilizationCountOverdrawnAfterMission 0
scalar OsgEarthNet.uav[17] utilizationCountIdleState 10
scalar OsgEarthNet.uav[17] utilizationFail 0
scalar OsgEarthNet.uav[17] simulationTime 259200
scalar OsgEarthNet.uav[18] utilizationSecMission 44682.503012695
scalar OsgEarthNet.uav[18] utilizationSecMaintenance 18665.316326474
scalar OsgEarthNet.uav[18] utilizationSecCharge 195162.96004691
scalar OsgEarthNet.uav[18] utilizationSecIdle 689.21961391566
scalar OsgEarthNet.uav[18] utilizationEnergyMission 214099.6705246
scalar OsgEarthNet.uav[18] utilizationEnergyMaintenance 85793.930622101
scalar OsgEarthNet.uav[18] utilizationEnergyCharge 301374.22705078
scalar OsgEarthNet.uav[18] utilizationEnergyOverdrawMission 0
scalar OsgEarthNet.uav[18] utilizationEnergyOverdrawMaintenance 0
scalar OsgEarthNet.uav[18] utilizationCountMissions 67
scalar OsgEarthNet.uav[18] utilizationCountManeuversMission 1366
scalar OsgEarthNet.uav[18] utilizationCountManeuversMaintenance 134
scalar OsgEarthNet.uav[18] utilizationCountChargeState 67
scalar OsgEarthNet.uav[18] utilizationCountOverdrawnAfterMission 0
scalar OsgEarthNet.uav[18] utilizationCountIdleState 1
scalar OsgEarthNet.uav[18] utilizationFail 0
scalar OsgEarthNet.uav[18] simulationTime 259200
scalar OsgEarthNet.uav[19] utilizationSecMission 44508.449909703
scalar OsgEarthNet.uav[19] utilizationSecMaintenance 18548.516588377
scalar OsgEarthNet.uav[19] utilizationSecCharge 192642.08224626
scalar OsgEarthNet.uav[19] utilizationSecIdle 3500.9502556647
scalar OsgEarthNet.uav[19] utilizationEnergyMission 217363.68315506
scalar OsgEarthNet.uav[19] utilizationEnergyMaintenance 84459.422767639
scalar OsgEarthNet.uav[19] utilizationEnergyCharge 294633.27142334
scalar OsgEarthNet.uav[19] utilizationEnergyOverdrawMission 0
scalar OsgEarthNet.uav[19] utilizationEnergyOverdrawMaintenance 0
scalar OsgEarthNet.uav[19] utilizationCountMissions 66
scalar OsgEarthNet.uav[19] utilizationCountManeuversMission 1362
scalar OsgEarthNet.uav[19] utilizationCountManeuversMaintenance 132
scalar OsgEarthNet.uav[19] utilizationCountChargeState 66
scalar OsgEarthNet.uav[19] utilizationCountOverdrawnAfterMission 0
scalar OsgEarthNet.uav[19] utilizationCountIdleState 1
scalar OsgEarthNet.uav[19] utilizationFail 0
scalar OsgEarthNet.uav[19] simulationTime 259200
scalar OsgEarthNet.uav[20] utilizationSecMission 37815.737889586
scalar OsgEarthNet.uav[20] utilizationSecMaintenance 24435.655612984
scalar OsgEarthNet.uav[20] utilizationSecCharge 193536.59849743
scalar OsgEarthNet.uav[20] utilizationSecIdle 3412.007
scalar OsgEarthNet.uav[20] utilizationEnergyMission 185370.86543274
scalar OsgEarthNet.uav[20] utilizationEnergyMaintenance 116687.18492508
scalar OsgEarthNet.uav[20] utilizationEnergyCharge 299422.19384766
scalar OsgEarthNet.uav[20] utilizationEnergyOverdrawMission 0
scalar OsgEarthNet.uav[20] utilizationEnergyOverdrawMaintenance 0
scalar OsgEarthNet.uav[20] utilizationCountMissions 69
scalar OsgEarthNet.uav[20] utilizationCountManeuversMission 1223
scalar OsgEarthNet.uav[20] utilizationCountManeuversMaintenance 138
scalar OsgEarthNet.uav[20] utilizationCountChargeState 69
scalar OsgEarthNet.uav[20] utilizationCountOverdrawnAfterMission 0
scalar OsgEarthNet.uav[20] utilizationCountIdleState 3
scalar OsgEarthNet.uav[20] utilizationFail 0
scalar OsgEarthNet.uav[20] simulationTime 259200
scalar OsgEarthNet.uav[21] utilizationSecMission 34367.842421505
scalar OsgEarthNet.uav[21] utilizationSecMaintenance 23482.062391696
scalar OsgEarthNet.uav[21] utilizationSecCharge 200215.48229728
scalar OsgEarthNet.uav[21] utilizationSecIdle 1134.6118895164
scalar OsgEarthNet.uav[21] utilizationEnergyMission 166522.81737137
scalar OsgEarthNet.uav[21] utilizationEnergyMaintenance 110005.99957657
scalar OsgEarthNet.uav[21] utilizationEnergyCharge 277961.61743164
scalar OsgEarthNet.uav[21] utilizationEnergyOverdrawMission 0
scalar OsgEarthNet.uav[21] utilizationEnergyOverdrawMaintenance 0
scalar OsgEarthNet.uav[21] utilizationCountMissions 69
scalar OsgEarthNet.uav[21] utilizationCountManeuversMission 1139
scalar OsgEarthNet.uav[21] utilizationCountManeuversMaintenance 138
scalar OsgEarthNet.uav[21] utilizationCountChargeState 69
scalar OsgEarthNet.uav[21] utilizationCountOverdrawnAfterMission 0
scalar OsgEarthNet.uav[21] utilizationCountIdleState 5
scalar OsgEarthNet.uav[21] utilizationFail 0
scalar OsgEarthNet.uav[21] simulationTime 259200
scalar OsgEarthNet.uav[22] utilizationSecMission 44973.981781829
scalar OsgEarthNet.uav[22] utilizationSecMaintenance 18927.180585624
scalar OsgEarthNet.uav[22] utilizationSecCharge 194696.83563255
scalar OsgEarthNet.uav[22] utilizationSecIdle 602.001
scalar OsgEarthNet.uav[22] utilizationEnergyMission 216523.65075684
scalar OsgEarthNet.uav[22] utilizationEnergyMaintenance 86885.42609024
scalar OsgEarthNet.uav[22] utilizationEnergyCharge 299112.52307129
scalar OsgEarthNet.uav[22] utilizationEnergyOverdrawMission 0
scalar OsgEarthNet.uav[22] utilizationEnergyOverdrawMaintenance 0
scalar OsgEarthNet.uav[22] utilizationCountMissions 67
scalar OsgEarthNet.uav[22] utilizationCountManeuversMission 1406
scalar OsgEarthNet.uav[22] utilizationCountManeuversMaintenance 134
scalar OsgEarthNet.uav[22] utilizationCountChargeState 67
scalar OsgEarthNet.uav[22] utilizationCountOverdrawnAfterMission 0
scalar OsgEarthNet.uav[22] utilizationCountIdleState 1
scalar OsgEarthNet.uav[22] utilizationFail 0
scalar OsgEarthNet.uav[22] simulationTime 259200
scalar OsgEarthNet.uav[23] utilizationSecMission 45553.780846486
scalar OsgEarthNet.uav[23] utilizationSecMaintenance 16217.000224696
scalar OsgEarthNet.uav[23] utilizationSecCharge 194468.26867315
scalar OsgEarthNet.uav[23] utilizationSecIdle 2960.9492556647
scalar OsgEarthNet.uav[23] utilizationEnergyMission 215093.95285034
scalar OsgEarthNet.uav[23] utilizationEnergyMaintenance 75399.476364136
scalar OsgEarthNet.uav[23] utilizationEnergyCharge 293899.59326172
scalar OsgEarthNet.uav[23] utilizationEnergyOverdrawMission 0
scalar OsgEarthNet.uav[23] utilizationEnergyOverdrawMaintenance 0
scalar OsgEarthNet.uav[23] utilizationCountMissions 64
scalar OsgEarthNet.uav[23] utilizationCountManeuversMission 1213
scalar OsgEarthNet.uav[23] utilizationCountManeuversMaintenance 128
scalar OsgEarthNet.uav[23] utilizationCountChargeState 64
scalar OsgEarthNet.uav[23] utilizationCountOverdrawnAfterMission 0
scalar OsgEarthNet.uav[23] utilizationCountIdleState 1
scalar OsgEarthNet.uav[23] utilizationFail 0
scalar OsgEarthNet.uav[23] simulationTime 259200
scalar OsgEarthNet.uav[24] utilizationSecMission 37283.330019256
scalar OsgEarthNet.uav[24] utilizationSecMaintenance 21365.350500532
scalar OsgEarthNet.uav[24] utilizationSecCharge 197216.61278118
scalar OsgEarthNet.uav[24] utilizationSecIdle 3334.7056990363
scalar OsgEarthNet.uav[24] utilizationEnergyMission 181662.73106766
scalar OsgEarthNet.uav[24] utilizationEnergyMaintenance 99090.588447571
scalar OsgEarthNet.uav[24] utilizationEnergyCharge 278690.07861328
scalar OsgEarthNet.uav[24] utilizationEnergyOverdrawMission 0
scalar OsgEarthNet.uav[24] utilizationEnergyOverdrawMaintenance 0
scalar OsgEarthNet.uav[24] utilizationCountMissions 68
scalar OsgEarthNet.uav[24] utilizationCountManeuversMission 1163
scalar OsgEarthNet.uav[24] utilizationCountManeuversMaintenance 136
scalar OsgEarthNet.uav[24] utilizationCountChargeState 68
scalar OsgEarthNet.uav[24] utilizationCountOverdrawnAfterMission 0
scalar OsgEarthNet.uav[24] utilizationCountIdleState 5
scalar OsgEarthNet.uav[24] utilizationFail 0
scalar OsgEarthNet.uav[24] simulationTime 259200
scalar OsgEarthNet.uav[25] utilizationSecMission 42053.56739991
scalar OsgEarthNet.uav[25] utilizationSecMaintenance 21513.643457091
scalar OsgEarthNet.uav[25] utilizationSecCharge 194161.33518428
scalar OsgEarthNet.uav[25] utilizationSecIdle 1471.4529587171
scalar OsgEarthNet.uav[25] utilizationEnergyMission 208262.05459213
scalar OsgEarthNet.uav[25] utilizationEnergyMaintenance 99986.88809967
scalar OsgEarthNet.uav[25] utilizationEnergyCharge 305366.54223633
scalar OsgEarthNet.uav[25] utilizationEnergyOverdrawMission 0
scalar OsgEarthNet.uav[25] utilizationEnergyOverdrawMaintenance 0
scalar OsgEarthNet.uav[25] utilizationCountMissions 69
scalar OsgEarthNet.uav[25] utilizationCountManeuversMission 1543
scalar OsgEarthNet.uav[25] utilizationCountManeuversMaintenance 138
scalar OsgEarthNet.uav[25] utilizationCountChargeState 69
scalar OsgEarthNet.uav[25] utilizationCountOverdrawnAfterMission 0
scalar OsgEarthNet.uav[25] utilizationCountIdleState 1
scalar OsgEarthNet.uav[25] utilizationFail 0
scalar OsgEarthNet.uav[25] simulationTime 259200
scalar OsgEarthNet.uav[26] utilizationSecMission 34754.004538833
scalar OsgEarthNet.uav[26] utilizationSecMaintenance 22148.537304239
scalar OsgEarthNet.uav[26] utilizationSecCharge 199705.31734378
scalar OsgEarthNet.uav[26] utilizationSecIdle 2592.1398131443
scalar OsgEarthNet.uav[26] utilizationEnergyMission 167834.01704025
scalar OsgEarthNet.uav[26] utilizationEnergyMaintenance 105050.06077576
scalar OsgEarthNet.uav[26] utilizationEnergyCharge 273829.31323242
scalar OsgEarthNet.uav[26] utilizationEnergyOverdrawMission 0
scalar OsgEarthNet.uav[26] utilizationEnergyOverdrawMaintenance 0
scalar OsgEarthNet.uav[26] utilizationCountMissions 67
scalar OsgEarthNet.uav[26] utilizationCountManeuversMission 1090
scalar OsgEarthNet.uav[26] utilizationCountManeuversMaintenance 134
scalar OsgEarthNet.uav[26] utilizationCountChargeState 67
scalar OsgEarthNet.uav[26] utilizationCountOverdrawnAfterMission 0
scalar OsgEarthNet.uav[26] utilizationCountIdleState 9
scalar OsgEarthNet.uav[26] utilizationFail 0
scalar OsgEarthNet.uav[26] simulationTime 259200
scalar OsgEarthNet.uav[27] utilizationSecMission 45153.106577135
scalar OsgEarthNet.uav[27] utilizationSecMaintenance 18327.544922294
scalar OsgEarthNet.uav[27] utilizationSecCharge 193693.90641188
scalar OsgEarthNet.uav[27] utilizationSecIdle 2025.4410886909
scalar OsgEarthNet.uav[27] utilizationEnergyMission 219218.91713333
scalar OsgEarthNet.uav[27] utilizationEnergyMaintenance 83757.627494812
scalar OsgEarthNet.uav[27] utilizationEnergyCharge 296712.537323
scalar OsgEarthNet.uav[27] utilizationEnergyOverdrawMission 0
scalar OsgEarthNet.uav[27] utilizationEnergyOverdrawMaintenance 0
scalar OsgEarthNet.uav[27] utilizationCountMissions 66
scalar OsgEarthNet.uav[27] utilizationCountManeuversMission 1267
scalar OsgEarthNet.uav[27] utilizationCountManeuversMaintenance 132
scalar OsgEarthNet.uav[27] utilizationCountChargeState 66
scalar OsgEarthNet.uav[27] utilizationCountOverdrawnAfterMission 0
scalar OsgEarthNet.uav[27] utilizationCountIdleState 1
scalar OsgEarthNet.uav[27] utilizationFail 0
scalar OsgEarthNet.uav[27] simulationTime 259200
scalar OsgEarthNet.uav[28] utilizationSecMission 41867.31877849
scalar OsgEarthNet.uav[28] utilizationSecMaintenance 21220.67822151
scalar OsgEarthNet.uav[28] utilizationSecCharge 194930
scalar OsgEarthNet.uav[28] utilizationSecIdle 1182.002
scalar OsgEarthNet.uav[28] utilizationEnergyMission 203206.57328796
scalar OsgEarthNet.uav[28] utilizationEnergyMaintenance 99708.572207576
scalar OsgEarthNet.uav[28] utilizationEnergyCharge 298580.39379883
scalar OsgEarthNet.uav[28] utilizationEnergyOverdrawMission 0
scalar OsgEarthNet.uav[28] utilizationEnergyOverdrawMaintenance 0
scalar OsgEarthNet.uav[28] utilizationCountMissions 68
scalar OsgEarthNet.uav[28] utilizationCountManeuversMission 1270
scalar OsgEarthNet.uav[28] utilizationCountManeuversMaintenance 136
scalar OsgEarthNet.uav[28] utilizationCountChargeState 67
scalar OsgEarthNet.uav[28] utilizationCountOverdrawnAfterMission 0
scalar OsgEarthNet.uav[28] utilizationCountIdleState 1
scalar OsgEarthNet.uav[28] utilizationFail 0
scalar OsgEarthNet.uav[28] simulationTime 259200
scalar OsgEarthNet.uav[29] utilizationSecMission 38076.903032918
scalar OsgEarthNet.uav[29] utilizationSecMaintenance 24731.094152341
scalar OsgEarthNet.uav[29] utilizationSecCharge 195310.48815379
scalar OsgEarthNet.uav[29] utilizationSecIdle 1081.5136609497
scalar OsgEarthNet.uav[29] utilizationEnergyMission 184515.21408081
scalar OsgEarthNet.uav[29] utilizationEnergyMaintenance 117710.85390091
scalar OsgEarthNet.uav[29] utilizationEnergyCharge 300908.58569336
scalar OsgEarthNet.uav[29] utilizationEnergyOverdrawMission 0
scalar OsgEarthNet.uav[29] utilizationEnergyOverdrawMaintenance 0
scalar OsgEarthNet.uav[29] utilizationCountMissions 70
scalar OsgEarthNet.uav[29] utilizationCountManeuversMission 1215
scalar OsgEarthNet.uav[29] utilizationCountManeuversMaintenance 140
scalar OsgEarthNet.uav[29] utilizationCountChargeState 70
scalar OsgEarthNet.uav[29] utilizationCountOverdrawnAfterMission 0
scalar OsgEarthNet.uav[29] utilizationCountIdleState 4
scalar OsgEarthNet.uav[29] utilizationFail 0
scalar OsgEarthNet.uav[29] simulationTime 259200
scalar OsgEarthNet.uav[30] utilizationSecMission 45134.251780901
scalar OsgEarthNet.uav[30] utilizationSecMaintenance 17884.798963435
scalar OsgEarthNet.uav[30] utilizationSecCharge 193700
scalar OsgEarthNet.uav[30] utilizationSecIdle 2480.9482556647
scalar OsgEarthNet.uav[30] utilizationEnergyMission 215603.23695791
scalar OsgEarthNet.uav[30] utilizationEnergyMaintenance 83551.836631775
scalar OsgEarthNet.uav[30] utilizationEnergyCharge 296095.66650391
scalar OsgEarthNet.uav[30] utilizationEnergyOverdrawMission 0
scalar OsgEarthNet.uav[30] utilizationEnergyOverdrawMaintenance 0
scalar OsgEarthNet.uav[30] utilizationCountMissions 65
scalar OsgEarthNet.uav[30] utilizationCountManeuversMission 1232
scalar OsgEarthNet.uav[30] utilizationCountManeuversMaintenance 131
scalar OsgEarthNet.uav[30] utilizationCountChargeState 65
scalar OsgEarthNet.uav[30] utilizationCountOverdrawnAfterMission 0
scalar OsgEarthNet.uav[30] utilizationCountIdleState 1
scalar OsgEarthNet.uav[30] utilizationFail 0
scalar OsgEarthNet.uav[30] simulationTime 259200
scalar OsgEarthNet.uav[31] utilizationSecMission 42888.941824828
scalar OsgEarthNet.uav[31] utilizationSecMaintenance 19603.857395728
scalar OsgEarthNet.uav[31] utilizationSecCharge 194916.23579377
scalar OsgEarthNet.uav[31] utilizationSecIdle 1790.9639856735
scalar OsgEarthNet.uav[31] utilizationEnergyMission 205945.7134819
scalar OsgEarthNet.uav[31] utilizationEnergyMaintenance 90984.443447113
scalar OsgEarthNet.uav[31] utilizationEnergyCharge 293121.53759766
scalar OsgEarthNet.uav[31] utilizationEnergyOverdrawMission 0
scalar OsgEarthNet.uav[31] utilizationEnergyOverdrawMaintenance 0
scalar OsgEarthNet.uav[31] utilizationCountMissions 68
scalar OsgEarthNet.uav[31] utilizationCountManeuversMission 1217
scalar OsgEarthNet.uav[31] utilizationCountManeuversMaintenance 136
scalar OsgEarthNet.uav[31] utilizationCountChargeState 68
scalar OsgEarthNet.uav[31] utilizationCountOverdrawnAfterMission 0
scalar OsgEarthNet.uav[31] utilizationCountIdleState 2
scalar OsgEarthNet.uav[31] utilizationFail 0
scalar OsgEarthNet.uav[31] simulationTime 259200
scalar OsgEarthNet.uav[32] utilizationSecMission 39536.426533492
scalar OsgEarthNet.uav[32] utilizationSecMaintenance 23384.864077615
scalar OsgEarthNet.uav[32] utilizationSecCharge 194346.70538889
scalar OsgEarthNet.uav[32] utilizationSecIdle 1932.003
scalar OsgEarthNet.uav[32] utilizationEnergyMission 191300.82320023
scalar OsgEarthNet.uav[32] utilizationEnergyMaintenance 110021.39696884
scalar OsgEarthNet.uav[32] utilizationEnergyCharge 299326.54541016
scalar OsgEarthNet.uav[32] utilizationEnergyOverdrawMission 0
scalar OsgEarthNet.uav[32] utilizationEnergyOverdrawMaintenance 0
scalar OsgEarthNet.uav[32] utilizationCountMissions 69
scalar OsgEarthNet.uav[32] utilizationCountManeuversMission 1242
scalar OsgEarthNet.uav[32] utilizationCountManeuversMaintenance 138
scalar OsgEarthNet.uav[32] utilizationCountChargeState 69
scalar OsgEarthNet.uav[32] utilizationCountOverdrawnAfterMission 0
scalar OsgEarthNet.uav[32] utilizationCountIdleState 4
scalar OsgEarthNet.uav[32] utilizationFail 0
scalar OsgEarthNet.uav[32] simulationTime 259200
scalar OsgEarthNet.uav[33] utilizationSecMission 43158.490641032
scalar OsgEarthNet.uav[33] utilizationSecMaintenance 20649.508358968
scalar OsgEarthNet.uav[33] utilizationSecCharge 195350
scalar OsgEarthNet.uav[33] utilizationSecIdle 42
scalar OsgEarthNet.uav[33] utilizationEnergyMission 211061.78110737
scalar OsgEarthNet.uav[33] utilizationEnergyMaintenance 95690.92539978
scalar OsgEarthNet.uav[33] utilizationEnergyCharge 301851.14013672
scalar OsgEarthNet.uav[33] utilizationEnergyOverdrawMission 0
scalar OsgEarthNet.uav[33] utilizationEnergyOverdrawMaintenance 0
scalar OsgEarthNet.uav[33] utilizationCountMissions 68
scalar OsgEarthNet.uav[33] utilizationCountManeuversMission 1351
scalar OsgEarthNet.uav[33] utilizationCountManeuversMaintenance 136
scalar OsgEarthNet.uav[33] utilizationCountChargeState 68
scalar OsgEarthNet.uav[33] utilizationCountOverdrawnAfterMission 0
scalar OsgEarthNet.uav[33] utilizationCountIdleState 2
scalar OsgEarthNet.uav[33] utilizationFail 0
scalar OsgEarthNet.uav[33] simulationTime 259200
scalar OsgEarthNet.uav[34] utilizationSecMission 36555.948503614
scalar OsgEarthNet.uav[34] utilizationSecMaintenance 25002.288475269
scalar OsgEarthNet.uav[34] utilizationSecCharge 196909.76102112
scalar OsgEarthNet.uav[34] utilizationSecIdle 732.001
scalar OsgEarthNet.uav[34] utilizationEnergyMission 180062.54639816
scalar OsgEarthNet.uav[34] utilizationEnergyMaintenance 118153.37580109
scalar OsgEarthNet.uav[34] utilizationEnergyCharge 294259.81689453
scalar OsgEarthNet.uav[34] utilizationEnergyOverdrawMission 0
scalar OsgEarthNet.uav[34] utilizationEnergyOverdrawMaintenance 0
scalar OsgEarthNet.uav[34] utilizationCountMissions 70
scalar OsgEarthNet.uav[34] utilizationCountManeuversMission 1238
scalar OsgEarthNet.uav[34] utilizationCountManeuversMaintenance 140
scalar OsgEarthNet.uav[34] utilizationCountChargeState 70
scalar OsgEarthNet.uav[34] utilizationCountOverdrawnAfterMission 0
scalar OsgEarthNet.uav[34] utilizationCountIdleState 4
scalar OsgEarthNet.uav[34] utilizationFail 0
scalar OsgEarthNet.uav[34] simulationTime 259200
scalar OsgEarthNet.uav[35] utilizationSecMission 45309.451042632
scalar OsgEarthNet.uav[35] utilizationSecMaintenance 18544.081240574
scalar OsgEarthNet.uav[35] utilizationSecCharge 193907.0413695
scalar OsgEarthNet.uav[35] utilizationSecIdle 1439.4253472904
scalar OsgEarthNet.uav[35] utilizationEnergyMission 216011.07026672
scalar OsgEarthNet.uav[35] utilizationEnergyMaintenance 84084.567115784
scalar OsgEarthNet.uav[35] utilizationEnergyCharge 297130.1875
scalar OsgEarthNet.uav[35] utilizationEnergyOverdrawMission 0
scalar OsgEarthNet.uav[35] utilizationEnergyOverdrawMaintenance 0
scalar OsgEarthNet.uav[35] utilizationCountMissions 66
scalar OsgEarthNet.uav[35] utilizationCountManeuversMission 1261
scalar OsgEarthNet.uav[35] utilizationCountManeuversMaintenance 132
scalar OsgEarthNet.uav[35] utilizationCountChargeState 66
scalar OsgEarthNet.uav[35] utilizationCountOverdrawnAfterMission 0
scalar OsgEarthNet.uav[35] utilizationCountIdleState 1
scalar OsgEarthNet.uav[35] utilizationFail 0
scalar OsgEarthNet.uav[35] simulationTime 259200
scalar OsgEarthNet.uav[36] utilizationSecMission 34806.822902254
scalar OsgEarthNet.uav[36] utilizationSecMaintenance 22660.509378114
scalar OsgEarthNet.uav[36] utilizationSecCharge 198279.90075429
scalar OsgEarthNet.uav[36] utilizationSecIdle 3452.765965339
scalar OsgEarthNet.uav[36] utilizationEnergyMission 169296.63619614
scalar OsgEarthNet.uav[36] utilizationEnergyMaintenance 107634.25973892
scalar OsgEarthNet.uav[36] utilizationEnergyCharge 273536.8840332
scalar OsgEarthNet.uav[36] utilizationEnergyOverdrawMission 0
scalar OsgEarthNet.uav[36] utilizationEnergyOverdrawMaintenance 0
scalar OsgEarthNet.uav[36] utilizationCountMissions 69
scalar OsgEarthNet.uav[36] utilizationCountManeuversMission 1097
scalar OsgEarthNet.uav[36] utilizationCountManeuversMaintenance 138
scalar OsgEarthNet.uav[36] utilizationCountChargeState 69
scalar OsgEarthNet.uav[36] utilizationCountOverdrawnAfterMission 0
scalar OsgEarthNet.uav[36] utilizationCountIdleState 6
scalar OsgEarthNet.uav[36] utilizationFail 0
scalar OsgEarthNet.uav[36] simulationTime 259200
scalar OsgEarthNet.uav[37] utilizationSecMission 43669.355092141
scalar OsgEarthNet.uav[37] utilizationSecMaintenance 19445.201819168
scalar OsgEarthNet.uav[37] utilizationSecCharge 193740
scalar OsgEarthNet.uav[37] utilizationSecIdle 2345.4420886909
scalar OsgEarthNet.uav[37] utilizationEnergyMission 208996.80703245
scalar OsgEarthNet.uav[37] utilizationEnergyMaintenance 91210.328330994
scalar OsgEarthNet.uav[37] utilizationEnergyCharge 298172.16259766
scalar OsgEarthNet.uav[37] utilizationEnergyOverdrawMission 0
scalar OsgEarthNet.uav[37] utilizationEnergyOverdrawMaintenance 0
scalar OsgEarthNet.uav[37] utilizationCountMissions 66
scalar OsgEarthNet.uav[37] utilizationCountManeuversMission 1197
scalar OsgEarthNet.uav[37] utilizationCountManeuversMaintenance 133
scalar OsgEarthNet.uav[37] utilizationCountChargeState 66
scalar OsgEarthNet.uav[37] utilizationCountOverdrawnAfterMission 0
scalar OsgEarthNet.uav[37] utilizationCountIdleState 1
scalar OsgEarthNet.uav[37] utilizationFail 0
scalar OsgEarthNet.uav[37] simulationTime 259200
scalar OsgEarthNet.uav[38] utilizationSecMission 44770.639310661
scalar OsgEarthNet.uav[38] utilizationSecMaintenance 18845.243633438
scalar OsgEarthNet.uav[38] utilizationSecCharge 194132.1140559
scalar OsgEarthNet.uav[38] utilizationSecIdle 1452.002
scalar OsgEarthNet.uav[38] utilizationEnergyMission 217389.78267288
scalar OsgEarthNet.uav[38] utilizationEnergyMaintenance 86034.053974152
scalar OsgEarthNet.uav[38] utilizationEnergyCharge 300002.09228516
scalar OsgEarthNet.uav[38] utilizationEnergyOverdrawMission 0
scalar OsgEarthNet.uav[38] utilizationEnergyOverdrawMaintenance 0
scalar OsgEarthNet.uav[38] utilizationCountMissions 67
scalar OsgEarthNet.uav[38] utilizationCountManeuversMission 1397
scalar OsgEarthNet.uav[38] utilizationCountManeuversMaintenance 134
scalar OsgEarthNet.uav[38] utilizationCountChargeState 67
scalar OsgEarthNet.uav[38] utilizationCountOverdrawnAfterMission 0
scalar OsgEarthNet.uav[38] utilizationCountIdleState 3
scalar OsgEarthNet.uav[38] utilizationFail 0
scalar OsgEarthNet.uav[38] simulationTime 259200
scalar OsgEarthNet.uav[39] utilizationSecMission 36207.894340482
scalar OsgEarthNet.uav[39] utilizationSecMaintenance 23669.778449612
scalar OsgEarthNet.uav[39] utilizationSecCharge 198200.32520991
scalar OsgEarthNet.uav[39] utilizationSecIdle 1122.001
scalar OsgEarthNet.uav[39] utilizationEnergyMission 175233.13529205
scalar OsgEarthNet.uav[39] utilizationEnergyMaintenance 111905.45631409
scalar OsgEarthNet.uav[39] utilizationEnergyCharge 285300.38623047
scalar OsgEarthNet.uav[39] utilizationEnergyOverdrawMission 0
scalar OsgEarthNet.uav[39] utilizationEnergyOverdrawMaintenance 0
scalar OsgEarthNet.uav[39] utilizationCountMissions 68
scalar OsgEarthNet.uav[39] utilizationCountManeuversMission 1201
scalar OsgEarthNet.uav[39] utilizationCountManeuversMaintenance 136
scalar OsgEarthNet.uav[39] utilizationCountChargeState 68
scalar OsgEarthNet.uav[39] utilizationCountOverdrawnAfterMission 0
scalar OsgEarthNet.uav[39] utilizationCountIdleState 8
scalar OsgEarthNet.uav[39] utilizationFail 0
scalar OsgEarthNet.uav[39] simulationTime 259200
scalar OsgEarthNet.uav[40] utilizationSecMission 33031.866413383
scalar OsgEarthNet.uav[40] utilizationSecMaintenance 23023.949545234
scalar OsgEarthNet.uav[40] utilizationSecCharge 199092.39693886
scalar OsgEarthNet.uav[40] utilizationSecIdle 4051.7861025228
scalar OsgEarthNet.uav[40] utilizationEnergyMission 160071.69072723
scalar OsgEarthNet.uav[40] utilizationEnergyMaintenance 109785.49652863
scalar OsgEarthNet.uav[40] utilizationEnergyCharge 270304.68115234
scalar OsgEarthNet.uav[40] utilizationEnergyOverdrawMission 0
scalar OsgEarthNet.uav[40] utilizationEnergyOverdrawMaintenance 0
scalar OsgEarthNet.uav[40] utilizationCountMissions 69
scalar OsgEarthNet.uav[40] utilizationCountManeuversMission 1035
scalar OsgEarthNet.uav[40] utilizationCountManeuversMaintenance 138
scalar OsgEarthNet.uav[40] utilizationCountChargeState 69
scalar OsgEarthNet.uav[40] utilizationCountOverdrawnAfterMission 0
scalar OsgEarthNet.uav[40] utilizationCountIdleState 10
scalar OsgEarthNet.uav[40] utilizationFail 0
scalar OsgEarthNet.uav[40] simulationTime 259200
scalar OsgEarthNet.uav[41] utilizationSecMission 35005.860049166
scalar OsgEarthNet.uav[41] utilizationSecMaintenance 23504.720666319
scalar OsgEarthNet.uav[41] utilizationSecCharge 197827.41528451
scalar OsgEarthNet.uav[41] utilizationSecIdle 2862.003
scalar OsgEarthNet.uav[41] utilizationEnergyMission 173260.45065308
scalar OsgEarthNet.uav[41] utilizationEnergyMaintenance 111467.07243347
scalar OsgEarthNet.uav[41] utilizationEnergyCharge 281647.82006836
scalar OsgEarthNet.uav[41] utilizationEnergyOverdrawMission 0
scalar OsgEarthNet.uav[41] utilizationEnergyOverdrawMaintenance 0
scalar OsgEarthNet.uav[41] utilizationCountMissions 67
scalar OsgEarthNet.uav[41] utilizationCountManeuversMission 1187
scalar OsgEarthNet.uav[41] utilizationCountManeuversMaintenance 134
scalar OsgEarthNet.uav[41] utilizationCountChargeState 67
scalar OsgEarthNet.uav[41] utilizationCountOverdrawnAfterMission 0
scalar OsgEarthNet.uav[41] utilizationCountIdleState 9
scalar OsgEarthNet.uav[41] utilizationFail 0
scalar OsgEarthNet.uav[41] simulationTime 259200
scalar OsgEarthNet.uav[42] utilizationSecMission 44155.831671667
scalar OsgEarthNet.uav[42] utilizationSecMaintenance 19963.725269451
scalar OsgEarthNet.uav[42] utilizationSecCharge 195078.44205888
scalar OsgEarthNet.uav[42] utilizationSecIdle 2
scalar OsgEarthNet.uav[42] utilizationEnergyMission 217036.48480988
scalar OsgEarthNet.uav[42] utilizationEnergyMaintenance 92039.50201416
scalar OsgEarthNet.uav[42] utilizationEnergyCharge 302100.65945435
scalar OsgEarthNet.uav[42] utilizationEnergyOverdrawMission 0
scalar OsgEarthNet.uav[42] utilizationEnergyOverdrawMaintenance 0
scalar OsgEarthNet.uav[42] utilizationCountMissions 68
scalar OsgEarthNet.uav[42] utilizationCountManeuversMission 1578
scalar OsgEarthNet.uav[42] utilizationCountManeuversMaintenance 136
scalar OsgEarthNet.uav[42] utilizationCountChargeState 68
scalar OsgEarthNet.uav[42] utilizationCountOverdrawnAfterMission 0
scalar OsgEarthNet.uav[42] utilizationCountIdleState 1
scalar OsgEarthNet.uav[42] utilizationFail 0
scalar OsgEarthNet.uav[42] simulationTime 259200
scalar OsgEarthNet.uav[43] utilizationSecMission 39224.740998979
scalar OsgEarthNet.uav[43] utilizationSecMaintenance 24132.727087489
scalar OsgEarthNet.uav[43] utilizationSecCharge 195810.53091353
scalar OsgEarthNet.uav[43] utilizationSecIdle 32
scalar OsgEarthNet.uav[43] utilizationEnergyMission 191121.12682724
scalar OsgEarthNet.uav[43] utilizationEnergyMaintenance 114732.19113922
scalar OsgEarthNet.uav[43] utilizationEnergyCharge 301783.35491943
scalar OsgEarthNet.uav[43] utilizationEnergyOverdrawMission 0
scalar OsgEarthNet.uav[43] utilizationEnergyOverdrawMaintenance 0
scalar OsgEarthNet.uav[43] utilizationCountMissions 70
scalar OsgEarthNet.uav[43] utilizationCountManeuversMission 1225
scalar OsgEarthNet.uav[43] utilizationCountManeuversMaintenance 139
scalar OsgEarthNet.uav[43] utilizationCountChargeState 70
scalar OsgEarthNet.uav[43] utilizationCountOverdrawnAfterMission 0
scalar OsgEarthNet.uav[43] utilizationCountIdleState 2
scalar OsgEarthNet.uav[43] utilizationFail 0
scalar OsgEarthNet.uav[43] simulationTime 259200
scalar OsgEarthNet.uav[44] utilizationSecMission 35682.363317765
scalar OsgEarthNet.uav[44] utilizationSecMaintenance 25005.635682235
scalar OsgEarthNet.uav[44] utilizationSecCharge 198320
scalar OsgEarthNet.uav[44] utilizationSecIdle 192
scalar OsgEarthNet.uav[44] utilizationEnergyMission 175269.01105499
scalar OsgEarthNet.uav[44] utilizationEnergyMaintenance 118495.59593613
scalar OsgEarthNet.uav[44] utilizationEnergyCharge 289520.48168945
scalar OsgEarthNet.uav[44] utilizationEnergyOverdrawMission 0
scalar OsgEarthNet.uav[44] utilizationEnergyOverdrawMaintenance 0
scalar OsgEarthNet.uav[44] utilizationCountMissions 71
scalar OsgEarthNet.uav[44] utilizationCountManeuversMission 1194
scalar OsgEarthNet.uav[44] utilizationCountManeuversMaintenance 142
scalar OsgEarthNet.uav[44] utilizationCountChargeState 70
scalar OsgEarthNet.uav[44] utilizationCountOverdrawnAfterMission 0
scalar OsgEarthNet.uav[44] utilizationCountIdleState 4
scalar OsgEarthNet.uav[44] utilizationFail 0
scalar OsgEarthNet.uav[44] simulationTime 259200
scalar OsgEarthNet.uav[45] utilizationSecMission 39453.885491489
scalar OsgEarthNet.uav[45] utilizationSecMaintenance 21839.519593576
scalar OsgEarthNet.uav[45] utilizationSecCharge 197884.59391493
scalar OsgEarthNet.uav[45] utilizationSecIdle 22
scalar OsgEarthNet.uav[45] utilizationEnergyMission 190638.62710953
scalar OsgEarthNet.uav[45] utilizationEnergyMaintenance 103570.76618576
scalar OsgEarthNet.uav[45] utilizationEnergyCharge 293868.22021484
scalar OsgEarthNet.uav[45] utilizationEnergyOverdrawMission 0
scalar OsgEarthNet.uav[45] utilizationEnergyOverdrawMaintenance 0
scalar OsgEarthNet.uav[45] utilizationCountMissions 69
scalar OsgEarthNet.uav[45] utilizationCountManeuversMission 1208
scalar OsgEarthNet.uav[45] utilizationCountManeuversMaintenance 138
scalar OsgEarthNet.uav[45] utilizationCountChargeState 69
scalar OsgEarthNet.uav[45] utilizationCountOverdrawnAfterMission 0
scalar OsgEarthNet.uav[45] utilizationCountIdleState 2
scalar OsgEarthNet.uav[45] utilizationFail 0
scalar OsgEarthNet.uav[45] simulationTime 259200
scalar OsgEarthNet.uav[46] utilizationSecMission 41893.176913539
scalar OsgEarthNet.uav[46] utilizationSecMaintenance 20654.814086461
scalar OsgEarthNet.uav[46] utilizationSecCharge 192910
scalar OsgEarthNet.uav[46] utilizationSecIdle 3742.008
scalar OsgEarthNet.uav[46] utilizationEnergyMission 201513.96069762
scalar OsgEarthNet.uav[46] utilizationEnergyMaintenance 94904.934604645
scalar OsgEarthNet.uav[46] utilizationEnergyCharge 300000.46801758
scalar OsgEarthNet.uav[46] utilizationEnergyOverdrawMission 0
scalar OsgEarthNet.uav[46] utilizationEnergyOverdrawMaintenance 0
scalar OsgEarthNet.uav[46] utilizationCountMissions 67
scalar OsgEarthNet.uav[46] utilizationCountManeuversMission 1453
scalar OsgEarthNet.uav[46] utilizationCountManeuversMaintenance 135
scalar OsgEarthNet.uav[46] utilizationCountChargeState 67
scalar OsgEarthNet.uav[46] utilizationCountOverdrawnAfterMission 0
scalar OsgEarthNet.uav[46] utilizationCountIdleState 1
scalar OsgEarthNet.uav[46] utilizationFail 0
scalar OsgEarthNet.uav[46] simulationTime 259200
scalar OsgEarthNet.uav[47] utilizationSecMission 35277.764567841
scalar OsgEarthNet.uav[47] utilizationSecMaintenance 22668.089188284
scalar OsgEarthNet.uav[47] utilizationSecCharge 198225.791641
scalar OsgEarthNet.uav[47] utilizationSecIdle 3028.3536028792
scalar OsgEarthNet.uav[47] utilizationEnergyMission 169983.21888351
scalar OsgEarthNet.uav[47] utilizationEnergyMaintenance 107893.20783997
scalar OsgEarthNet.uav[47] utilizationEnergyCharge 276655.88208008
scalar OsgEarthNet.uav[47] utilizationEnergyOverdrawMission 0
scalar OsgEarthNet.uav[47] utilizationEnergyOverdrawMaintenance 0
scalar OsgEarthNet.uav[47] utilizationCountMissions 67
scalar OsgEarthNet.uav[47] utilizationCountManeuversMission 1161
scalar OsgEarthNet.uav[47] utilizationCountManeuversMaintenance 134
scalar OsgEarthNet.uav[47] utilizationCountChargeState 67
scalar OsgEarthNet.uav[47] utilizationCountOverdrawnAfterMission 0
scalar OsgEarthNet.uav[47] utilizationCountIdleState 10
scalar OsgEarthNet.uav[47] utilizationFail 0
scalar OsgEarthNet.uav[47] simulationTime 259200
scalar OsgEarthNet.uav[48] utilizationSecMission 45487.978111059
scalar OsgEarthNet.uav[48] utilizationSecMaintenance 17820.020888941
scalar OsgEarthNet.uav[48] utilizationSecCharge 195890
scalar OsgEarthNet.uav[48] utilizationSecIdle 2
scalar OsgEarthNet.uav[48] utilizationEnergyMission 217848.82061814
scalar OsgEarthNet.uav[48] utilizationEnergyMaintenance 82320.080848694
scalar OsgEarthNet.uav[48] utilizationEnergyCharge 299300.8762207
scalar OsgEarthNet.uav[48] utilizationEnergyOverdrawMission 0
scalar OsgEarthNet.uav[48] utilizationEnergyOverdrawMaintenance 0
scalar OsgEarthNet.uav[48] utilizationCountMissions 66
scalar OsgEarthNet.uav[48] utilizationCountManeuversMission 1253
scalar OsgEarthNet.uav[48] utilizationCountManeuversMaintenance 132
scalar OsgEarthNet.uav[48] utilizationCountChargeState 66
scalar OsgEarthNet.uav[48] utilizationCountOverdrawnAfterMission 0
scalar OsgEarthNet.uav[48] utilizationCountIdleState 1
scalar OsgEarthNet.uav[48] utilizationFail 0
scalar OsgEarthNet.uav[48] simulationTime 259200
scalar OsgEarthNet.uav[49] utilizationSecMission 42852.574099269
scalar OsgEarthNet.uav[49] utilizationSecMaintenance 19503.890486064
scalar OsgEarthNet.uav[49] utilizationSecCharge 193864.9537578
scalar OsgEarthNet.uav[49] utilizationSecIdle 2978.5806568717
scalar OsgEarthNet.uav[49] utilizationEnergyMission 208748.7361145
scalar OsgEarthNet.uav[49] utilizationEnergyMaintenance 90062.263679504
scalar OsgEarthNet.uav[49] utilizationEnergyCharge 296715.9284668
scalar OsgEarthNet.uav[49] utilizationEnergyOverdrawMission 0
scalar OsgEarthNet.uav[49] utilizationEnergyOverdrawMaintenance 0
scalar OsgEarthNet.uav[49] utilizationCountMissions 66
scalar OsgEarthNet.uav[49] utilizationCountManeuversMission 1245
scalar OsgEarthNet.uav[49] utilizationCountManeuversMaintenance 132
scalar OsgEarthNet.uav[49] utilizationCountChargeState 66
scalar OsgEarthNet.uav[49] utilizationCountOverdrawnAfterMission 0
scalar OsgEarthNet.uav[49] utilizationCountIdleState 2
scalar OsgEarthNet.uav[49] utilizationFail 0
scalar OsgEarthNet.uav[49] simulationTime 259200
scalar OsgEarthNet.uav[50] utilizationSecMission 44412.361715806
scalar OsgEarthNet.uav[50] utilizationSecMaintenance 18054.245166661
scalar OsgEarthNet.uav[50] utilizationSecCharge 193520
scalar OsgEarthNet.uav[50] utilizationSecIdle 3213.3921175336
scalar OsgEarthNet.uav[50] utilizationEnergyMission 213495.13070679
scalar OsgEarthNet.uav[50] utilizationEnergyMaintenance 84304.506619899
scalar OsgEarthNet.uav[50] utilizationEnergyCharge 293714.57421875
scalar OsgEarthNet.uav[50] utilizationEnergyOverdrawMission 0
scalar OsgEarthNet.uav[50] utilizationEnergyOverdrawMaintenance 0
scalar OsgEarthNet.uav[50] utilizationCountMissions 66
scalar OsgEarthNet.uav[50] utilizationCountManeuversMission 1300
scalar OsgEarthNet.uav[50] utilizationCountManeuversMaintenance 132
scalar OsgEarthNet.uav[50] utilizationCountChargeState 65
scalar OsgEarthNet.uav[50] utilizationCountOverdrawnAfterMission 0
scalar OsgEarthNet.uav[50] utilizationCountIdleState 1
scalar OsgEarthNet.uav[50] utilizationFail 0
scalar OsgEarthNet.uav[50] simulationTime 259200
scalar OsgEarthNet.uav[51] utilizationSecMission 33351.353934738
scalar OsgEarthNet.uav[51] utilizationSecMaintenance 23441.343453475
scalar OsgEarthNet.uav[51] utilizationSecCharge 199465.29761179
scalar OsgEarthNet.uav[51] utilizationSecIdle 2942.004
scalar OsgEarthNet.uav[51] utilizationEnergyMission 162000.4568634
scalar OsgEarthNet.uav[51] utilizationEnergyMaintenance 111508.22668076
scalar OsgEarthNet.uav[51] utilizationEnergyCharge 272158.48999023
scalar OsgEarthNet.uav[51] utilizationEnergyOverdrawMission 0
scalar OsgEarthNet.uav[51] utilizationEnergyOverdrawMaintenance 0
scalar OsgEarthNet.uav[51] utilizationCountMissions 69
scalar OsgEarthNet.uav[51] utilizationCountManeuversMission 1153
scalar OsgEarthNet.uav[51] utilizationCountManeuversMaintenance 138
scalar OsgEarthNet.uav[51] utilizationCountChargeState 69
scalar OsgEarthNet.uav[51] utilizationCountOverdrawnAfterMission 0
scalar OsgEarthNet.uav[51] utilizationCountIdleState 6
scalar OsgEarthNet.uav[51] utilizationFail 0
scalar OsgEarthNet.uav[51] simulationTime 259200
scalar OsgEarthNet.uav[52] utilizationSecMission 40284.515832066
scalar OsgEarthNet.uav[52] utilizationSecMaintenance 22270.280279268
scalar OsgEarthNet.uav[52] utilizationSecCharge 194828.85266785
scalar OsgEarthNet.uav[52] utilizationSecIdle 1816.3502208215
scalar OsgEarthNet.uav[52] utilizationEnergyMission 198356.55715179
scalar OsgEarthNet.uav[52] utilizationEnergyMaintenance 103631.37794495
scalar OsgEarthNet.uav[52] utilizationEnergyCharge 299905.86962891
scalar OsgEarthNet.uav[52] utilizationEnergyOverdrawMission 0
scalar OsgEarthNet.uav[52] utilizationEnergyOverdrawMaintenance 0
scalar OsgEarthNet.uav[52] utilizationCountMissions 68
scalar OsgEarthNet.uav[52] utilizationCountManeuversMission 1369
scalar OsgEarthNet.uav[52] utilizationCountManeuversMaintenance 136
scalar OsgEarthNet.uav[52] utilizationCountChargeState 68
scalar OsgEarthNet.uav[52] utilizationCountOverdrawnAfterMission 0
scalar OsgEarthNet.uav[52] utilizationCountIdleState 2
scalar OsgEarthNet.uav[52] utilizationFail 0
scalar OsgEarthNet.uav[52] simulationTime 259200
scalar OsgEarthNet.uav[53] utilizationSecMission 44065.91542426
scalar OsgEarthNet.uav[53] utilizationSecMaintenance 19368.213631245
scalar OsgEarthNet.uav[53] utilizationSecCharge 193342.27928279
scalar OsgEarthNet.uav[53] utilizationSecIdle 2423.5906617084
scalar OsgEarthNet.uav[53] utilizationEnergyMission 209825.73365784
scalar OsgEarthNet.uav[53] utilizationEnergyMaintenance 90228.637378693
scalar OsgEarthNet.uav[53] utilizationEnergyCharge 297938.17553711
scalar OsgEarthNet.uav[53] utilizationEnergyOverdrawMission 0
scalar OsgEarthNet.uav[53] utilizationEnergyOverdrawMaintenance 0
scalar OsgEarthNet.uav[53] utilizationCountMissions 66
scalar OsgEarthNet.uav[53] utilizationCountManeuversMission 1164
scalar OsgEarthNet.uav[53] utilizationCountManeuversMaintenance 132
scalar OsgEarthNet.uav[53] utilizationCountChargeState 66
scalar OsgEarthNet.uav[53] utilizationCountOverdrawnAfterMission 0
scalar OsgEarthNet.uav[53] utilizationCountIdleState 1
scalar OsgEarthNet.uav[53] utilizationFail 0
scalar OsgEarthNet.uav[53] simulationTime 259200
scalar OsgEarthNet.uav[54] utilizationSecMission 44120.02726482
scalar OsgEarthNet.uav[54] utilizationSecMaintenance 18834.516546648
scalar OsgEarthNet.uav[54] utilizationSecCharge 194237.45533801
scalar OsgEarthNet.uav[54] utilizationSecIdle 2007.9998505245
scalar OsgEarthNet.uav[54] utilizationEnergyMission 212823.69599915
scalar OsgEarthNet.uav[54] utilizationEnergyMaintenance 84795.713840485
scalar OsgEarthNet.uav[54] utilizationEnergyCharge 297600.13769531
scalar OsgEarthNet.uav[54] utilizationEnergyOverdrawMission 0
scalar OsgEarthNet.uav[54] utilizationEnergyOverdrawMaintenance 0
scalar OsgEarthNet.uav[54] utilizationCountMissions 66
scalar OsgEarthNet.uav[54] utilizationCountManeuversMission 1369
scalar OsgEarthNet.uav[54] utilizationCountManeuversMaintenance 132
scalar OsgEarthNet.uav[54] utilizationCountChargeState 66
scalar OsgEarthNet.uav[54] utilizationCountOverdrawnAfterMission 0
scalar OsgEarthNet.uav[54] utilizationCountIdleState 1
scalar OsgEarthNet.uav[54] utilizationFail 0
scalar OsgEarthNet.uav[54] simulationTime 259200
scalar OsgEarthNet.uav[55] utilizationSecMission 43935.807320762
scalar OsgEarthNet.uav[55] utilizationSecMaintenance 19788.085857389
scalar OsgEarthNet.uav[55] utilizationSecCharge 194734.10482185
scalar OsgEarthNet.uav[55] utilizationSecIdle 742.001
scalar OsgEarthNet.uav[55] utilizationEnergyMission 210310.96724701
scalar OsgEarthNet.uav[55] utilizationEnergyMaintenance 90353.333637238
scalar OsgEarthNet.uav[55] utilizationEnergyCharge 301786.92041016
scalar OsgEarthNet.uav[55] utilizationEnergyOverdrawMission 0
scalar OsgEarthNet.uav[55] utilizationEnergyOverdrawMaintenance 0
scalar OsgEarthNet.uav[55] utilizationCountMissions 67
scalar OsgEarthNet.uav[55] utilizationCountManeuversMission 1260
scalar OsgEarthNet.uav[55] utilizationCountManeuversMaintenance 134
scalar OsgEarthNet.uav[55] utilizationCountChargeState 67
scalar OsgEarthNet.uav[55] utilizationCountOverdrawnAfterMission 0
scalar OsgEarthNet.uav[55] utilizationCountIdleState 1
scalar OsgEarthNet.uav[55] utilizationFail 0
scalar OsgEarthNet.uav[55] simulationTime 259200
scalar OsgEarthNet.uav[56] utilizationSecMission 37264.011395517
scalar OsgEarthNet.uav[56] utilizationSecMaintenance 25583.983604483
scalar OsgEarthNet.uav[56] utilizationSecCharge 194460
scalar OsgEarthNet.uav[56] utilizationSecIdle 1892.004
scalar OsgEarthNet.uav[56] utilizationEnergyMission 183091.61882401
scalar OsgEarthNet.uav[56] utilizationEnergyMaintenance 121670.90045187
scalar OsgEarthNet.uav[56] utilizationEnergyCharge 300808.39208984
scalar OsgEarthNet.uav[56] utilizationEnergyOverdrawMission 0
scalar OsgEarthNet.uav[56] utilizationEnergyOverdrawMaintenance 0
scalar OsgEarthNet.uav[56] utilizationCountMissions 70
scalar OsgEarthNet.uav[56] utilizationCountManeuversMission 1286
scalar OsgEarthNet.uav[56] utilizationCountManeuversMaintenance 140
scalar OsgEarthNet.uav[56] utilizationCountChargeState 69
scalar OsgEarthNet.uav[56] utilizationCountOverdrawnAfterMission 0
scalar OsgEarthNet.uav[56] utilizationCountIdleState 2
scalar OsgEarthNet.uav[56] utilizationFail 0
scalar OsgEarthNet.uav[56] simulationTime 259200
scalar OsgEarthNet.uav[57] utilizationSecMission 34402.352529179
scalar OsgEarthNet.uav[57] utilizationSecMaintenance 22667.111730425
scalar OsgEarthNet.uav[57] utilizationSecCharge 198390
scalar OsgEarthNet.uav[57] utilizationSecIdle 3740.5347403959
scalar OsgEarthNet.uav[57] utilizationEnergyMission 167558.11689377
scalar OsgEarthNet.uav[57] utilizationEnergyMaintenance 107743.90103266
scalar OsgEarthNet.uav[57] utilizationEnergyCharge 270154.15673828
scalar OsgEarthNet.uav[57] utilizationEnergyOverdrawMission 0
scalar OsgEarthNet.uav[57] utilizationEnergyOverdrawMaintenance 0
scalar OsgEarthNet.uav[57] utilizationCountMissions 66
scalar OsgEarthNet.uav[57] utilizationCountManeuversMission 1165
scalar OsgEarthNet.uav[57] utilizationCountManeuversMaintenance 133
scalar OsgEarthNet.uav[57] utilizationCountChargeState 66
scalar OsgEarthNet.uav[57] utilizationCountOverdrawnAfterMission 0
scalar OsgEarthNet.uav[57] utilizationCountIdleState 9
scalar OsgEarthNet.uav[57] utilizationFail 0
scalar OsgEarthNet.uav[57] simulationTime 259200
scalar OsgEarthNet.cs[0] usedPower 4085170.7954857
scalar OsgEarthNet.cs[0] chargedPower 4085170.7954857
scalar OsgEarthNet.cs[0] chargedMobileNodes 36
scalar OsgEarthNet.cs[0] reservations 943
scalar OsgEarthNet.cs[1] usedPower 4181918.3436336
scalar OsgEarthNet.cs[1] chargedPower 4181918.3436336
scalar OsgEarthNet.cs[1] chargedMobileNodes 137
scalar OsgEarthNet.cs[1] reservations 1057
scalar OsgEarthNet.cs[2] usedPower 8668499.2763284
scalar OsgEarthNet.cs[2] chargedPower 8668499.2763284
scalar OsgEarthNet.cs[2] chargedMobileNodes 4
scalar OsgEarthNet.cs[2] reservations 1928

