version 2
run Szenario_Hotel_Gabelbach-20-20180710-11:25:30-33944
attr configname Szenario_Hotel_Gabelbach
attr datetime 20180710-11:25:30
attr experiment Szenario_Hotel_Gabelbach
attr inifile omnetpp.ini
attr iterationvars "$numUAVs=45, $replM=0"
attr iterationvarsf numUAVs=45,replM=0-
attr measurement "$numUAVs=45, $replM=0"
attr network OsgEarthNet
attr processid 33944
attr repetition 4
attr replication #4
attr resultdir results
attr runnumber 20
attr seedset 20
itervar numUAVs 45
itervar replM 0
param *.osgEarthScene.scene "\"Szenario_Hotel_Gabelbach.earth\""
param *.playgroundLatitude 50.6830269
param *.playgroundLongitude 10.8538055
param *.playgroundWidth 3500m
param *.playgroundHeight 3500m
param *.numCSs 3
param *.cs[0].posX 3537m
param *.cs[0].posY 965m
param *.cs[0].posZ 538m
param *.cs[1].posX 312m
param *.cs[1].posY 1262m
param *.cs[1].posZ 539m
param *.cs[2].posX 2185m
param *.cs[2].posY 3026m
param *.cs[2].posZ 777m
param *.cs[3].posX 10m
param *.cs[3].posY 2200m
param *.cs[3].posZ 560m
param *.cs[4].posX 750m
param *.cs[4].posY 200m
param *.cs[4].posZ 540m
param *.cs[5].posX 2450m
param *.cs[5].posY 180m
param *.cs[5].posZ 524m
param *.cs[6].posX 3140m
param *.cs[6].posY 1790m
param *.cs[6].posZ 606m
param *.numUAVs 45
param *.uav[*].replacementMethod 0
param *.*.timeStep 10s
param *.uav[*].commandPreviewCommandCount 20
param *.missionControl.missionFiles "\"missions\\\\Szenario_WB_Hotel_Gabelbach_Mission_Hotel.waypoints,missions\\\\Szenario_WB_Hotel_Gabelbach_Mission_Kickelhahn.waypoints,missions\\\\Szenario_WB_Hotel_Gabelbach_Mission_Ilmenau_Sportplatz.waypoints,missions\\\\Szenario_WB_Hotel_Gabelbach_Mission_Manebach_Mitte.waypoints,missions\\\\Szenario_WB_Hotel_Gabelbach_Mission_Manebach_Sued.waypoints\""
param *.missionControl.missionFiles "\"missions\\\\Szenario_WB_Hotel_Gabelbach_Mission_Hotel.waypoints,missions\\\\Szenario_WB_Hotel_Gabelbach_Mission_Kickelhahn.waypoints,missions\\\\Szenario_WB_Hotel_Gabelbach_Mission_Ilmenau_Sportplatz.waypoints,missions\\\\Szenario_WB_Hotel_Gabelbach_Mission_Manebach_Mitte.waypoints,missions\\\\Szenario_WB_Hotel_Gabelbach_Mission_Manebach_Sued.waypoints,missions\\\\Szenario_WB_Hotel_Gabelbach_Hover_HoheSchlaufe.waypoints,missions\\\\Szenario_WB_Hotel_Gabelbach_Hover_Kickelhahn.waypoints,missions\\\\Szenario_WB_Hotel_Gabelbach_Hover_Gabelbachskopf.waypoints,missions\\\\Szenario_WB_Hotel_Gabelbach_Hover_Dachskopf.waypoints\""
param *.uav[0].startX 3537m
param *.uav[0].startY 965m
param *.uav[0].startZ 539m
param *.uav[1].startX 312m
param *.uav[1].startY 1262m
param *.uav[1].startZ 540m
param *.uav[2].startX 2185m
param *.uav[2].startY 3026m
param *.uav[2].startZ 778m
param *.uav[3].startX 3537m
param *.uav[3].startY 965m
param *.uav[3].startZ 539m
param *.uav[4].startX 312m
param *.uav[4].startY 1262m
param *.uav[4].startZ 540m
param *.uav[5].startX 2185m
param *.uav[5].startY 3026m
param *.uav[5].startZ 778m
param *.uav[6].startX 3537m
param *.uav[6].startY 965m
param *.uav[6].startZ 539m
param *.uav[7].startX 312m
param *.uav[7].startY 1262m
param *.uav[7].startZ 540m
param *.uav[8].startX 2185m
param *.uav[8].startY 3026m
param *.uav[8].startZ 778m
param *.uav[9].startX 3537m
param *.uav[9].startY 965m
param *.uav[9].startZ 539m
param *.uav[10].startX 3537m
param *.uav[10].startY 965m
param *.uav[10].startZ 539m
param *.uav[11].startX 312m
param *.uav[11].startY 1262m
param *.uav[11].startZ 540m
param *.uav[12].startX 2185m
param *.uav[12].startY 3026m
param *.uav[12].startZ 778m
param *.uav[13].startX 3537m
param *.uav[13].startY 965m
param *.uav[13].startZ 539m
param *.uav[14].startX 312m
param *.uav[14].startY 1262m
param *.uav[14].startZ 540m
param *.uav[15].startX 2185m
param *.uav[15].startY 3026m
param *.uav[15].startZ 778m
param *.uav[16].startX 3537m
param *.uav[16].startY 965m
param *.uav[16].startZ 539m
param *.uav[17].startX 312m
param *.uav[17].startY 1262m
param *.uav[17].startZ 540m
param *.uav[18].startX 2185m
param *.uav[18].startY 3026m
param *.uav[18].startZ 778m
param *.uav[19].startX 3537m
param *.uav[19].startY 965m
param *.uav[19].startZ 539m
param *.uav[20].startX 3537m
param *.uav[20].startY 965m
param *.uav[20].startZ 539m
param *.uav[21].startX 312m
param *.uav[21].startY 1262m
param *.uav[21].startZ 540m
param *.uav[22].startX 2185m
param *.uav[22].startY 3026m
param *.uav[22].startZ 778m
param *.uav[23].startX 3537m
param *.uav[23].startY 965m
param *.uav[23].startZ 539m
param *.uav[24].startX 312m
param *.uav[24].startY 1262m
param *.uav[24].startZ 540m
param *.uav[25].startX 2185m
param *.uav[25].startY 3026m
param *.uav[25].startZ 778m
param *.uav[26].startX 3537m
param *.uav[26].startY 965m
param *.uav[26].startZ 539m
param *.uav[27].startX 312m
param *.uav[27].startY 1262m
param *.uav[27].startZ 540m
param *.uav[28].startX 2185m
param *.uav[28].startY 3026m
param *.uav[28].startZ 778m
param *.uav[29].startX 3537m
param *.uav[29].startY 965m
param *.uav[29].startZ 539m
param *.uav[30].startX 3537m
param *.uav[30].startY 965m
param *.uav[30].startZ 539m
param *.uav[31].startX 312m
param *.uav[31].startY 1262m
param *.uav[31].startZ 540m
param *.uav[32].startX 2185m
param *.uav[32].startY 3026m
param *.uav[32].startZ 778m
param *.uav[33].startX 3537m
param *.uav[33].startY 965m
param *.uav[33].startZ 539m
param *.uav[34].startX 312m
param *.uav[34].startY 1262m
param *.uav[34].startZ 540m
param *.uav[35].startX 2185m
param *.uav[35].startY 3026m
param *.uav[35].startZ 778m
param *.uav[36].startX 3537m
param *.uav[36].startY 965m
param *.uav[36].startZ 539m
param *.uav[37].startX 312m
param *.uav[37].startY 1262m
param *.uav[37].startZ 540m
param *.uav[38].startX 2185m
param *.uav[38].startY 3026m
param *.uav[38].startZ 778m
param *.uav[39].startX 3537m
param *.uav[39].startY 965m
param *.uav[39].startZ 539m
param *.uav[40].startX 3537m
param *.uav[40].startY 965m
param *.uav[40].startZ 539m
param *.uav[41].startX 312m
param *.uav[41].startY 1262m
param *.uav[41].startZ 540m
param *.uav[42].startX 2185m
param *.uav[42].startY 3026m
param *.uav[42].startZ 778m
param *.uav[43].startX 3537m
param *.uav[43].startY 965m
param *.uav[43].startZ 539m
param *.uav[44].startX 312m
param *.uav[44].startY 1262m
param *.uav[44].startZ 540m
param *.uav[45].startX 2185m
param *.uav[45].startY 3026m
param *.uav[45].startZ 778m
param *.uav[46].startX 3537m
param *.uav[46].startY 965m
param *.uav[46].startZ 539m
param *.uav[47].startX 312m
param *.uav[47].startY 1262m
param *.uav[47].startZ 540m
param *.uav[48].startX 2185m
param *.uav[48].startY 3026m
param *.uav[48].startZ 778m
param *.uav[49].startX 3537m
param *.uav[49].startY 965m
param *.uav[49].startZ 539m
param *.uav[50].startX 3537m
param *.uav[50].startY 965m
param *.uav[50].startZ 539m
param *.uav[51].startX 312m
param *.uav[51].startY 1262m
param *.uav[51].startZ 540m
param *.uav[52].startX 2185m
param *.uav[52].startY 3026m
param *.uav[52].startZ 778m
param *.uav[53].startX 3537m
param *.uav[53].startY 965m
param *.uav[53].startZ 539m
param *.uav[54].startX 312m
param *.uav[54].startY 1262m
param *.uav[54].startZ 540m
param *.uav[55].startX 2185m
param *.uav[55].startY 3026m
param *.uav[55].startZ 778m
param *.uav[56].startX 3537m
param *.uav[56].startY 965m
param *.uav[56].startZ 539m
param *.uav[57].startX 312m
param *.uav[57].startY 1262m
param *.uav[57].startZ 540m
param *.uav[58].startX 2185m
param *.uav[58].startY 3026m
param *.uav[58].startZ 778m
param *.uav[59].startX 3537m
param *.uav[59].startY 965m
param *.uav[59].startZ 539m
param *.uav[60].startX 3537m
param *.uav[60].startY 965m
param *.uav[60].startZ 539m
param *.uav[61].startX 312m
param *.uav[61].startY 1262m
param *.uav[61].startZ 540m
param *.uav[62].startX 2185m
param *.uav[62].startY 3026m
param *.uav[62].startZ 778m
param *.uav[63].startX 3537m
param *.uav[63].startY 965m
param *.uav[63].startZ 539m
param *.uav[64].startX 312m
param *.uav[64].startY 1262m
param *.uav[64].startZ 540m
param *.uav[65].startX 2185m
param *.uav[65].startY 3026m
param *.uav[65].startZ 778m
param *.uav[66].startX 3537m
param *.uav[66].startY 965m
param *.uav[66].startZ 539m
param *.uav[67].startX 312m
param *.uav[67].startY 1262m
param *.uav[67].startZ 540m
param *.uav[68].startX 2185m
param *.uav[68].startY 3026m
param *.uav[68].startZ 778m
param *.uav[69].startX 3537m
param *.uav[69].startY 965m
param *.uav[69].startZ 539m
param *.uav[70].startX 3537m
param *.uav[70].startY 965m
param *.uav[70].startZ 539m
param *.uav[71].startX 312m
param *.uav[71].startY 1262m
param *.uav[71].startZ 540m
param *.uav[72].startX 2185m
param *.uav[72].startY 3026m
param *.uav[72].startZ 778m
param *.uav[73].startX 3537m
param *.uav[73].startY 965m
param *.uav[73].startZ 539m
param *.uav[74].startX 312m
param *.uav[74].startY 1262m
param *.uav[74].startZ 540m
param *.uav[75].startX 2185m
param *.uav[75].startY 3026m
param *.uav[75].startZ 778m
param *.uav[76].startX 3537m
param *.uav[76].startY 965m
param *.uav[76].startZ 539m
param *.uav[77].startX 312m
param *.uav[77].startY 1262m
param *.uav[77].startZ 540m
param *.uav[78].startX 2185m
param *.uav[78].startY 3026m
param *.uav[78].startZ 778m
param *.uav[79].startX 3537m
param *.uav[79].startY 965m
param *.uav[79].startZ 539m
param *.uav[80].startX 3537m
param *.uav[80].startY 965m
param *.uav[80].startZ 539m
param *.uav[81].startX 312m
param *.uav[81].startY 1262m
param *.uav[81].startZ 540m
param *.uav[82].startX 2185m
param *.uav[82].startY 3026m
param *.uav[82].startZ 778m
param *.uav[83].startX 3537m
param *.uav[83].startY 965m
param *.uav[83].startZ 539m
param *.uav[84].startX 312m
param *.uav[84].startY 1262m
param *.uav[84].startZ 540m
param *.uav[85].startX 2185m
param *.uav[85].startY 3026m
param *.uav[85].startZ 778m
param *.uav[86].startX 3537m
param *.uav[86].startY 965m
param *.uav[86].startZ 539m
param *.uav[87].startX 312m
param *.uav[87].startY 1262m
param *.uav[87].startZ 540m
param *.uav[88].startX 2185m
param *.uav[88].startY 3026m
param *.uav[88].startZ 778m
param *.uav[89].startX 3537m
param *.uav[89].startY 965m
param *.uav[89].startZ 539m
param *.uav[90].startX 3537m
param *.uav[90].startY 965m
param *.uav[90].startZ 539m
param *.uav[91].startX 312m
param *.uav[91].startY 1262m
param *.uav[91].startZ 540m
param *.uav[92].startX 2185m
param *.uav[92].startY 3026m
param *.uav[92].startZ 778m
param *.uav[93].startX 3537m
param *.uav[93].startY 965m
param *.uav[93].startZ 539m
param *.uav[94].startX 312m
param *.uav[94].startY 1262m
param *.uav[94].startZ 540m
param *.uav[95].startX 2185m
param *.uav[95].startY 3026m
param *.uav[95].startZ 778m
param *.uav[96].startX 3537m
param *.uav[96].startY 965m
param *.uav[96].startZ 539m
param *.uav[97].startX 312m
param *.uav[97].startY 1262m
param *.uav[97].startZ 540m
param *.uav[98].startX 2185m
param *.uav[98].startY 3026m
param *.uav[98].startZ 778m
param *.uav[99].startX 3537m
param *.uav[99].startY 965m
param *.uav[99].startZ 539m
param *.osgEarthScene.scene "\"boston.earth\""
param *.playgroundLatitude 42.3558
param *.playgroundLongitude -71.0677
param *.playgroundWidth 400m
param *.playgroundHeight 200m
param *.channelController.connectionColor "\"#0000FF40\""
param *.channelController.showConnections false
param *.uav[*].modelURL "\"quadrocopter.small.obj.15.scale.0,0,90.rot\""
param *.uav[*].labelColor "\"#FF7C00CC\""
param *.uav[*].label2Color "\"#FF7C00EE\""
param *.uav[*].batteryCapacity 5200mAh
param *.uav[*].batteryRemaining uav[index].batteryCapacity
param *.uav[*].predictionQuantile 0.95
param *.uav[*].replacementMethod 2
param *.uav[*].weightedSumWeight 0.5
param *.cs[*].modelURL "\"chargingstation_v1.osgt.2.scale.0,0,0.rot.0,0,-15e-1.trans\""
param *.cs[*].spotsWaiting 999
param *.cs[*].spotsCharging 999
param *.cs[*].chargeEffectivenessPercentage 100
param *.cs[*].nonLinearPhaseStartPercentage 85
param *.cs[*].chargeCurrent 6.0A
param *.cs[*].prioritizeFastCharge true
param *.missionControl.replacementSearchMethod 0
param *.*.timeStep 9s

scalar OsgEarthNet.uav[0] utilizationSecMission 23867.817567483
scalar OsgEarthNet.uav[0] utilizationSecMaintenance 18550.196990025
scalar OsgEarthNet.uav[0] utilizationSecCharge 156090
scalar OsgEarthNet.uav[0] utilizationSecIdle 60691.984442492
scalar OsgEarthNet.uav[0] utilizationEnergyMission 109693.80014038
scalar OsgEarthNet.uav[0] utilizationEnergyMaintenance 86119.944007874
scalar OsgEarthNet.uav[0] utilizationEnergyCharge 196018.40356445
scalar OsgEarthNet.uav[0] utilizationEnergyOverdrawMission 0
scalar OsgEarthNet.uav[0] utilizationEnergyOverdrawMaintenance 0
scalar OsgEarthNet.uav[0] utilizationCountMissions 43
scalar OsgEarthNet.uav[0] utilizationCountManeuversMission 386
scalar OsgEarthNet.uav[0] utilizationCountManeuversMaintenance 86
scalar OsgEarthNet.uav[0] utilizationCountChargeState 43
scalar OsgEarthNet.uav[0] utilizationCountOverdrawnAfterMission 0
scalar OsgEarthNet.uav[0] utilizationCountIdleState 44
scalar OsgEarthNet.uav[0] utilizationFail 0
scalar OsgEarthNet.uav[0] simulationTime 259200
scalar OsgEarthNet.uav[1] utilizationSecMission 29144.497955709
scalar OsgEarthNet.uav[1] utilizationSecMaintenance 18104.169432828
scalar OsgEarthNet.uav[1] utilizationSecCharge 174660
scalar OsgEarthNet.uav[1] utilizationSecIdle 37291.331611463
scalar OsgEarthNet.uav[1] utilizationEnergyMission 134021.41908264
scalar OsgEarthNet.uav[1] utilizationEnergyMaintenance 84942.01499939
scalar OsgEarthNet.uav[1] utilizationEnergyCharge 219695.31591797
scalar OsgEarthNet.uav[1] utilizationEnergyOverdrawMission 0
scalar OsgEarthNet.uav[1] utilizationEnergyOverdrawMaintenance 0
scalar OsgEarthNet.uav[1] utilizationCountMissions 48
scalar OsgEarthNet.uav[1] utilizationCountManeuversMission 472
scalar OsgEarthNet.uav[1] utilizationCountManeuversMaintenance 96
scalar OsgEarthNet.uav[1] utilizationCountChargeState 48
scalar OsgEarthNet.uav[1] utilizationCountOverdrawnAfterMission 0
scalar OsgEarthNet.uav[1] utilizationCountIdleState 49
scalar OsgEarthNet.uav[1] utilizationFail 0
scalar OsgEarthNet.uav[1] simulationTime 259200
scalar OsgEarthNet.uav[2] utilizationSecMission 27223.385084825
scalar OsgEarthNet.uav[2] utilizationSecMaintenance 21807.438804764
scalar OsgEarthNet.uav[2] utilizationSecCharge 177370
scalar OsgEarthNet.uav[2] utilizationSecIdle 32799.175110411
scalar OsgEarthNet.uav[2] utilizationEnergyMission 126848.80072021
scalar OsgEarthNet.uav[2] utilizationEnergyMaintenance 100076.33991321
scalar OsgEarthNet.uav[2] utilizationEnergyCharge 222479.03686523
scalar OsgEarthNet.uav[2] utilizationEnergyOverdrawMission 0
scalar OsgEarthNet.uav[2] utilizationEnergyOverdrawMaintenance 0
scalar OsgEarthNet.uav[2] utilizationCountMissions 50
scalar OsgEarthNet.uav[2] utilizationCountManeuversMission 449
scalar OsgEarthNet.uav[2] utilizationCountManeuversMaintenance 100
scalar OsgEarthNet.uav[2] utilizationCountChargeState 49
scalar OsgEarthNet.uav[2] utilizationCountOverdrawnAfterMission 0
scalar OsgEarthNet.uav[2] utilizationCountIdleState 50
scalar OsgEarthNet.uav[2] utilizationFail 0
scalar OsgEarthNet.uav[2] simulationTime 259200
scalar OsgEarthNet.uav[3] utilizationSecMission 27763.196888059
scalar OsgEarthNet.uav[3] utilizationSecMaintenance 19822.157690018
scalar OsgEarthNet.uav[3] utilizationSecCharge 174030
scalar OsgEarthNet.uav[3] utilizationSecIdle 37584.644421923
scalar OsgEarthNet.uav[3] utilizationEnergyMission 128299.85367304
scalar OsgEarthNet.uav[3] utilizationEnergyMaintenance 92435.378410339
scalar OsgEarthNet.uav[3] utilizationEnergyCharge 218588.02758789
scalar OsgEarthNet.uav[3] utilizationEnergyOverdrawMission 0
scalar OsgEarthNet.uav[3] utilizationEnergyOverdrawMaintenance 0
scalar OsgEarthNet.uav[3] utilizationCountMissions 48
scalar OsgEarthNet.uav[3] utilizationCountManeuversMission 452
scalar OsgEarthNet.uav[3] utilizationCountManeuversMaintenance 97
scalar OsgEarthNet.uav[3] utilizationCountChargeState 48
scalar OsgEarthNet.uav[3] utilizationCountOverdrawnAfterMission 0
scalar OsgEarthNet.uav[3] utilizationCountIdleState 49
scalar OsgEarthNet.uav[3] utilizationFail 0
scalar OsgEarthNet.uav[3] simulationTime 259200
scalar OsgEarthNet.uav[4] utilizationSecMission 27428.595343269
scalar OsgEarthNet.uav[4] utilizationSecMaintenance 19714.9080722
scalar OsgEarthNet.uav[4] utilizationSecCharge 173530
scalar OsgEarthNet.uav[4] utilizationSecIdle 38526.495584531
scalar OsgEarthNet.uav[4] utilizationEnergyMission 125825.84026718
scalar OsgEarthNet.uav[4] utilizationEnergyMaintenance 91508.309726715
scalar OsgEarthNet.uav[4] utilizationEnergyCharge 217460.54077148
scalar OsgEarthNet.uav[4] utilizationEnergyOverdrawMission 0
scalar OsgEarthNet.uav[4] utilizationEnergyOverdrawMaintenance 0
scalar OsgEarthNet.uav[4] utilizationCountMissions 48
scalar OsgEarthNet.uav[4] utilizationCountManeuversMission 452
scalar OsgEarthNet.uav[4] utilizationCountManeuversMaintenance 96
scalar OsgEarthNet.uav[4] utilizationCountChargeState 48
scalar OsgEarthNet.uav[4] utilizationCountOverdrawnAfterMission 0
scalar OsgEarthNet.uav[4] utilizationCountIdleState 49
scalar OsgEarthNet.uav[4] utilizationFail 0
scalar OsgEarthNet.uav[4] simulationTime 259200
scalar OsgEarthNet.uav[5] utilizationSecMission 27851.321381927
scalar OsgEarthNet.uav[5] utilizationSecMaintenance 20091.972252453
scalar OsgEarthNet.uav[5] utilizationSecCharge 174680
scalar OsgEarthNet.uav[5] utilizationSecIdle 36576.70536562
scalar OsgEarthNet.uav[5] utilizationEnergyMission 127478.59716874
scalar OsgEarthNet.uav[5] utilizationEnergyMaintenance 93178.238105774
scalar OsgEarthNet.uav[5] utilizationEnergyCharge 219594.26855469
scalar OsgEarthNet.uav[5] utilizationEnergyOverdrawMission 0
scalar OsgEarthNet.uav[5] utilizationEnergyOverdrawMaintenance 0
scalar OsgEarthNet.uav[5] utilizationCountMissions 48
scalar OsgEarthNet.uav[5] utilizationCountManeuversMission 450
scalar OsgEarthNet.uav[5] utilizationCountManeuversMaintenance 97
scalar OsgEarthNet.uav[5] utilizationCountChargeState 48
scalar OsgEarthNet.uav[5] utilizationCountOverdrawnAfterMission 0
scalar OsgEarthNet.uav[5] utilizationCountIdleState 49
scalar OsgEarthNet.uav[5] utilizationFail 0
scalar OsgEarthNet.uav[5] simulationTime 259200
scalar OsgEarthNet.uav[6] utilizationSecMission 25687.14509234
scalar OsgEarthNet.uav[6] utilizationSecMaintenance 18171.858235446
scalar OsgEarthNet.uav[6] utilizationSecCharge 161332.39503854
scalar OsgEarthNet.uav[6] utilizationSecIdle 54008.600633672
scalar OsgEarthNet.uav[6] utilizationEnergyMission 119162.76535416
scalar OsgEarthNet.uav[6] utilizationEnergyMaintenance 83405.250896454
scalar OsgEarthNet.uav[6] utilizationEnergyCharge 202404.72802734
scalar OsgEarthNet.uav[6] utilizationEnergyOverdrawMission 0
scalar OsgEarthNet.uav[6] utilizationEnergyOverdrawMaintenance 0
scalar OsgEarthNet.uav[6] utilizationCountMissions 45
scalar OsgEarthNet.uav[6] utilizationCountManeuversMission 433
scalar OsgEarthNet.uav[6] utilizationCountManeuversMaintenance 90
scalar OsgEarthNet.uav[6] utilizationCountChargeState 45
scalar OsgEarthNet.uav[6] utilizationCountOverdrawnAfterMission 0
scalar OsgEarthNet.uav[6] utilizationCountIdleState 45
scalar OsgEarthNet.uav[6] utilizationFail 0
scalar OsgEarthNet.uav[6] simulationTime 259200
scalar OsgEarthNet.uav[7] utilizationSecMission 28248.068850313
scalar OsgEarthNet.uav[7] utilizationSecMaintenance 21135.873716416
scalar OsgEarthNet.uav[7] utilizationSecCharge 180307.70382601
scalar OsgEarthNet.uav[7] utilizationSecIdle 29508.352607263
scalar OsgEarthNet.uav[7] utilizationEnergyMission 131590.40966797
scalar OsgEarthNet.uav[7] utilizationEnergyMaintenance 98773.42547226
scalar OsgEarthNet.uav[7] utilizationEnergyCharge 226090.86456299
scalar OsgEarthNet.uav[7] utilizationEnergyOverdrawMission 0
scalar OsgEarthNet.uav[7] utilizationEnergyOverdrawMaintenance 0
scalar OsgEarthNet.uav[7] utilizationCountMissions 51
scalar OsgEarthNet.uav[7] utilizationCountManeuversMission 465
scalar OsgEarthNet.uav[7] utilizationCountManeuversMaintenance 102
scalar OsgEarthNet.uav[7] utilizationCountChargeState 51
scalar OsgEarthNet.uav[7] utilizationCountOverdrawnAfterMission 0
scalar OsgEarthNet.uav[7] utilizationCountIdleState 49
scalar OsgEarthNet.uav[7] utilizationFail 0
scalar OsgEarthNet.uav[7] simulationTime 259200
scalar OsgEarthNet.uav[8] utilizationSecMission 27726.361230089
scalar OsgEarthNet.uav[8] utilizationSecMaintenance 20815.20592166
scalar OsgEarthNet.uav[8] utilizationSecCharge 178654.90651702
scalar OsgEarthNet.uav[8] utilizationSecIdle 32003.525331232
scalar OsgEarthNet.uav[8] utilizationEnergyMission 128637.52989197
scalar OsgEarthNet.uav[8] utilizationEnergyMaintenance 96883.787822723
scalar OsgEarthNet.uav[8] utilizationEnergyCharge 225510.19116211
scalar OsgEarthNet.uav[8] utilizationEnergyOverdrawMission 0
scalar OsgEarthNet.uav[8] utilizationEnergyOverdrawMaintenance 0
scalar OsgEarthNet.uav[8] utilizationCountMissions 49
scalar OsgEarthNet.uav[8] utilizationCountManeuversMission 451
scalar OsgEarthNet.uav[8] utilizationCountManeuversMaintenance 98
scalar OsgEarthNet.uav[8] utilizationCountChargeState 49
scalar OsgEarthNet.uav[8] utilizationCountOverdrawnAfterMission 0
scalar OsgEarthNet.uav[8] utilizationCountIdleState 48
scalar OsgEarthNet.uav[8] utilizationFail 0
scalar OsgEarthNet.uav[8] simulationTime 259200
scalar OsgEarthNet.uav[9] utilizationSecMission 28168.228443453
scalar OsgEarthNet.uav[9] utilizationSecMaintenance 20476.624372745
scalar OsgEarthNet.uav[9] utilizationSecCharge 177990
scalar OsgEarthNet.uav[9] utilizationSecIdle 32565.146183802
scalar OsgEarthNet.uav[9] utilizationEnergyMission 129530.24625397
scalar OsgEarthNet.uav[9] utilizationEnergyMaintenance 94064.939689636
scalar OsgEarthNet.uav[9] utilizationEnergyCharge 224041.23339844
scalar OsgEarthNet.uav[9] utilizationEnergyOverdrawMission 0
scalar OsgEarthNet.uav[9] utilizationEnergyOverdrawMaintenance 0
scalar OsgEarthNet.uav[9] utilizationCountMissions 49
scalar OsgEarthNet.uav[9] utilizationCountManeuversMission 459
scalar OsgEarthNet.uav[9] utilizationCountManeuversMaintenance 98
scalar OsgEarthNet.uav[9] utilizationCountChargeState 49
scalar OsgEarthNet.uav[9] utilizationCountOverdrawnAfterMission 0
scalar OsgEarthNet.uav[9] utilizationCountIdleState 49
scalar OsgEarthNet.uav[9] utilizationFail 0
scalar OsgEarthNet.uav[9] simulationTime 259200
scalar OsgEarthNet.uav[10] utilizationSecMission 27992.207086903
scalar OsgEarthNet.uav[10] utilizationSecMaintenance 22337.877276542
scalar OsgEarthNet.uav[10] utilizationSecCharge 181968.40097561
scalar OsgEarthNet.uav[10] utilizationSecIdle 26901.51366095
scalar OsgEarthNet.uav[10] utilizationEnergyMission 129175.7292099
scalar OsgEarthNet.uav[10] utilizationEnergyMaintenance 102924.76940918
scalar OsgEarthNet.uav[10] utilizationEnergyCharge 229318.83422852
scalar OsgEarthNet.uav[10] utilizationEnergyOverdrawMission 0
scalar OsgEarthNet.uav[10] utilizationEnergyOverdrawMaintenance 0
scalar OsgEarthNet.uav[10] utilizationCountMissions 51
scalar OsgEarthNet.uav[10] utilizationCountManeuversMission 456
scalar OsgEarthNet.uav[10] utilizationCountManeuversMaintenance 102
scalar OsgEarthNet.uav[10] utilizationCountChargeState 51
scalar OsgEarthNet.uav[10] utilizationCountOverdrawnAfterMission 0
scalar OsgEarthNet.uav[10] utilizationCountIdleState 50
scalar OsgEarthNet.uav[10] utilizationFail 0
scalar OsgEarthNet.uav[10] simulationTime 259200
scalar OsgEarthNet.uav[11] utilizationSecMission 29919.015882182
scalar OsgEarthNet.uav[11] utilizationSecMaintenance 18897.842762441
scalar OsgEarthNet.uav[11] utilizationSecCharge 176950.66823478
scalar OsgEarthNet.uav[11] utilizationSecIdle 33432.472120598
scalar OsgEarthNet.uav[11] utilizationEnergyMission 136804.82669067
scalar OsgEarthNet.uav[11] utilizationEnergyMaintenance 87927.259716034
scalar OsgEarthNet.uav[11] utilizationEnergyCharge 223268.54418945
scalar OsgEarthNet.uav[11] utilizationEnergyOverdrawMission 0
scalar OsgEarthNet.uav[11] utilizationEnergyOverdrawMaintenance 0
scalar OsgEarthNet.uav[11] utilizationCountMissions 49
scalar OsgEarthNet.uav[11] utilizationCountManeuversMission 480
scalar OsgEarthNet.uav[11] utilizationCountManeuversMaintenance 98
scalar OsgEarthNet.uav[11] utilizationCountChargeState 49
scalar OsgEarthNet.uav[11] utilizationCountOverdrawnAfterMission 0
scalar OsgEarthNet.uav[11] utilizationCountIdleState 49
scalar OsgEarthNet.uav[11] utilizationFail 0
scalar OsgEarthNet.uav[11] simulationTime 259200
scalar OsgEarthNet.uav[12] utilizationSecMission 30355.744944887
scalar OsgEarthNet.uav[12] utilizationSecMaintenance 20055.287225394
scalar OsgEarthNet.uav[12] utilizationSecCharge 183406.96682972
scalar OsgEarthNet.uav[12] utilizationSecIdle 25382
scalar OsgEarthNet.uav[12] utilizationEnergyMission 142154.75119514
scalar OsgEarthNet.uav[12] utilizationEnergyMaintenance 94202.646316528
scalar OsgEarthNet.uav[12] utilizationEnergyCharge 231292.70092773
scalar OsgEarthNet.uav[12] utilizationEnergyOverdrawMission 0
scalar OsgEarthNet.uav[12] utilizationEnergyOverdrawMaintenance 0
scalar OsgEarthNet.uav[12] utilizationCountMissions 51
scalar OsgEarthNet.uav[12] utilizationCountManeuversMission 508
scalar OsgEarthNet.uav[12] utilizationCountManeuversMaintenance 101
scalar OsgEarthNet.uav[12] utilizationCountChargeState 51
scalar OsgEarthNet.uav[12] utilizationCountOverdrawnAfterMission 0
scalar OsgEarthNet.uav[12] utilizationCountIdleState 51
scalar OsgEarthNet.uav[12] utilizationFail 0
scalar OsgEarthNet.uav[12] simulationTime 259200
scalar OsgEarthNet.uav[13] utilizationSecMission 29401.263104955
scalar OsgEarthNet.uav[13] utilizationSecMaintenance 19703.156749457
scalar OsgEarthNet.uav[13] utilizationSecCharge 176932.81318025
scalar OsgEarthNet.uav[13] utilizationSecIdle 33162.765965339
scalar OsgEarthNet.uav[13] utilizationEnergyMission 135124.1892662
scalar OsgEarthNet.uav[13] utilizationEnergyMaintenance 91065.92231369
scalar OsgEarthNet.uav[13] utilizationEnergyCharge 222445.9911499
scalar OsgEarthNet.uav[13] utilizationEnergyOverdrawMission 0
scalar OsgEarthNet.uav[13] utilizationEnergyOverdrawMaintenance 0
scalar OsgEarthNet.uav[13] utilizationCountMissions 50
scalar OsgEarthNet.uav[13] utilizationCountManeuversMission 490
scalar OsgEarthNet.uav[13] utilizationCountManeuversMaintenance 100
scalar OsgEarthNet.uav[13] utilizationCountChargeState 50
scalar OsgEarthNet.uav[13] utilizationCountOverdrawnAfterMission 0
scalar OsgEarthNet.uav[13] utilizationCountIdleState 49
scalar OsgEarthNet.uav[13] utilizationFail 0
scalar OsgEarthNet.uav[13] simulationTime 259200
scalar OsgEarthNet.uav[14] utilizationSecMission 22931.595895844
scalar OsgEarthNet.uav[14] utilizationSecMaintenance 17476.366770318
scalar OsgEarthNet.uav[14] utilizationSecCharge 148079.09359161
scalar OsgEarthNet.uav[14] utilizationSecIdle 70712.942742225
scalar OsgEarthNet.uav[14] utilizationEnergyMission 106660.19438171
scalar OsgEarthNet.uav[14] utilizationEnergyMaintenance 81182.857872009
scalar OsgEarthNet.uav[14] utilizationEnergyCharge 187744.98022461
scalar OsgEarthNet.uav[14] utilizationEnergyOverdrawMission 0
scalar OsgEarthNet.uav[14] utilizationEnergyOverdrawMaintenance 0
scalar OsgEarthNet.uav[14] utilizationCountMissions 41
scalar OsgEarthNet.uav[14] utilizationCountManeuversMission 366
scalar OsgEarthNet.uav[14] utilizationCountManeuversMaintenance 82
scalar OsgEarthNet.uav[14] utilizationCountChargeState 41
scalar OsgEarthNet.uav[14] utilizationCountOverdrawnAfterMission 0
scalar OsgEarthNet.uav[14] utilizationCountIdleState 40
scalar OsgEarthNet.uav[14] utilizationFail 0
scalar OsgEarthNet.uav[14] simulationTime 259200
scalar OsgEarthNet.uav[15] utilizationSecMission 30637.274672432
scalar OsgEarthNet.uav[15] utilizationSecMaintenance 18961.1722215
scalar OsgEarthNet.uav[15] utilizationSecCharge 182620
scalar OsgEarthNet.uav[15] utilizationSecIdle 26981.552106069
scalar OsgEarthNet.uav[15] utilizationEnergyMission 141487.37142944
scalar OsgEarthNet.uav[15] utilizationEnergyMaintenance 88874.827178955
scalar OsgEarthNet.uav[15] utilizationEnergyCharge 230086.12670898
scalar OsgEarthNet.uav[15] utilizationEnergyOverdrawMission 0
scalar OsgEarthNet.uav[15] utilizationEnergyOverdrawMaintenance 0
scalar OsgEarthNet.uav[15] utilizationCountMissions 50
scalar OsgEarthNet.uav[15] utilizationCountManeuversMission 507
scalar OsgEarthNet.uav[15] utilizationCountManeuversMaintenance 100
scalar OsgEarthNet.uav[15] utilizationCountChargeState 50
scalar OsgEarthNet.uav[15] utilizationCountOverdrawnAfterMission 0
scalar OsgEarthNet.uav[15] utilizationCountIdleState 51
scalar OsgEarthNet.uav[15] utilizationFail 0
scalar OsgEarthNet.uav[15] simulationTime 259200
scalar OsgEarthNet.uav[16] utilizationSecMission 26442.70582157
scalar OsgEarthNet.uav[16] utilizationSecMaintenance 20702.868755453
scalar OsgEarthNet.uav[16] utilizationSecCharge 173493.65865086
scalar OsgEarthNet.uav[16] utilizationSecIdle 38560.765772119
scalar OsgEarthNet.uav[16] utilizationEnergyMission 122025.59836578
scalar OsgEarthNet.uav[16] utilizationEnergyMaintenance 96223.653972626
scalar OsgEarthNet.uav[16] utilizationEnergyCharge 218324.89599609
scalar OsgEarthNet.uav[16] utilizationEnergyOverdrawMission 0
scalar OsgEarthNet.uav[16] utilizationEnergyOverdrawMaintenance 0
scalar OsgEarthNet.uav[16] utilizationCountMissions 48
scalar OsgEarthNet.uav[16] utilizationCountManeuversMission 441
scalar OsgEarthNet.uav[16] utilizationCountManeuversMaintenance 96
scalar OsgEarthNet.uav[16] utilizationCountChargeState 48
scalar OsgEarthNet.uav[16] utilizationCountOverdrawnAfterMission 0
scalar OsgEarthNet.uav[16] utilizationCountIdleState 47
scalar OsgEarthNet.uav[16] utilizationFail 0
scalar OsgEarthNet.uav[16] simulationTime 259200
scalar OsgEarthNet.uav[17] utilizationSecMission 29043.985653953
scalar OsgEarthNet.uav[17] utilizationSecMaintenance 18514.164929442
scalar OsgEarthNet.uav[17] utilizationSecCharge 171439.50485172
scalar OsgEarthNet.uav[17] utilizationSecIdle 40202.343564887
scalar OsgEarthNet.uav[17] utilizationEnergyMission 133276.64533234
scalar OsgEarthNet.uav[17] utilizationEnergyMaintenance 85835.799942017
scalar OsgEarthNet.uav[17] utilizationEnergyCharge 216890.41308594
scalar OsgEarthNet.uav[17] utilizationEnergyOverdrawMission 0
scalar OsgEarthNet.uav[17] utilizationEnergyOverdrawMaintenance 0
scalar OsgEarthNet.uav[17] utilizationCountMissions 48
scalar OsgEarthNet.uav[17] utilizationCountManeuversMission 475
scalar OsgEarthNet.uav[17] utilizationCountManeuversMaintenance 96
scalar OsgEarthNet.uav[17] utilizationCountChargeState 48
scalar OsgEarthNet.uav[17] utilizationCountOverdrawnAfterMission 0
scalar OsgEarthNet.uav[17] utilizationCountIdleState 46
scalar OsgEarthNet.uav[17] utilizationFail 0
scalar OsgEarthNet.uav[17] simulationTime 259200
scalar OsgEarthNet.uav[18] utilizationSecMission 29781.950060859
scalar OsgEarthNet.uav[18] utilizationSecMaintenance 19278.623591851
scalar OsgEarthNet.uav[18] utilizationSecCharge 178270
scalar OsgEarthNet.uav[18] utilizationSecIdle 31869.42534729
scalar OsgEarthNet.uav[18] utilizationEnergyMission 137849.45163775
scalar OsgEarthNet.uav[18] utilizationEnergyMaintenance 89631.049297333
scalar OsgEarthNet.uav[18] utilizationEnergyCharge 224657.95898438
scalar OsgEarthNet.uav[18] utilizationEnergyOverdrawMission 0
scalar OsgEarthNet.uav[18] utilizationEnergyOverdrawMaintenance 0
scalar OsgEarthNet.uav[18] utilizationCountMissions 49
scalar OsgEarthNet.uav[18] utilizationCountManeuversMission 490
scalar OsgEarthNet.uav[18] utilizationCountManeuversMaintenance 99
scalar OsgEarthNet.uav[18] utilizationCountChargeState 49
scalar OsgEarthNet.uav[18] utilizationCountOverdrawnAfterMission 0
scalar OsgEarthNet.uav[18] utilizationCountIdleState 49
scalar OsgEarthNet.uav[18] utilizationFail 0
scalar OsgEarthNet.uav[18] simulationTime 259200
scalar OsgEarthNet.uav[19] utilizationSecMission 25210.359086249
scalar OsgEarthNet.uav[19] utilizationSecMaintenance 19297.509249993
scalar OsgEarthNet.uav[19] utilizationSecCharge 160780.59159715
scalar OsgEarthNet.uav[19] utilizationSecIdle 53911.539066611
scalar OsgEarthNet.uav[19] utilizationEnergyMission 115512.03588104
scalar OsgEarthNet.uav[19] utilizationEnergyMaintenance 89719.61195755
scalar OsgEarthNet.uav[19] utilizationEnergyCharge 203644.00048828
scalar OsgEarthNet.uav[19] utilizationEnergyOverdrawMission 0
scalar OsgEarthNet.uav[19] utilizationEnergyOverdrawMaintenance 0
scalar OsgEarthNet.uav[19] utilizationCountMissions 45
scalar OsgEarthNet.uav[19] utilizationCountManeuversMission 413
scalar OsgEarthNet.uav[19] utilizationCountManeuversMaintenance 90
scalar OsgEarthNet.uav[19] utilizationCountChargeState 45
scalar OsgEarthNet.uav[19] utilizationCountOverdrawnAfterMission 0
scalar OsgEarthNet.uav[19] utilizationCountIdleState 42
scalar OsgEarthNet.uav[19] utilizationFail 0
scalar OsgEarthNet.uav[19] simulationTime 259200
scalar OsgEarthNet.uav[20] utilizationSecMission 27888.387551801
scalar OsgEarthNet.uav[20] utilizationSecMaintenance 20784.397476677
scalar OsgEarthNet.uav[20] utilizationSecCharge 177923.26257418
scalar OsgEarthNet.uav[20] utilizationSecIdle 32603.951397338
scalar OsgEarthNet.uav[20] utilizationEnergyMission 129040.08071136
scalar OsgEarthNet.uav[20] utilizationEnergyMaintenance 95861.137783051
scalar OsgEarthNet.uav[20] utilizationEnergyCharge 224136.90942383
scalar OsgEarthNet.uav[20] utilizationEnergyOverdrawMission 0
scalar OsgEarthNet.uav[20] utilizationEnergyOverdrawMaintenance 0
scalar OsgEarthNet.uav[20] utilizationCountMissions 49
scalar OsgEarthNet.uav[20] utilizationCountManeuversMission 447
scalar OsgEarthNet.uav[20] utilizationCountManeuversMaintenance 98
scalar OsgEarthNet.uav[20] utilizationCountChargeState 49
scalar OsgEarthNet.uav[20] utilizationCountOverdrawnAfterMission 0
scalar OsgEarthNet.uav[20] utilizationCountIdleState 48
scalar OsgEarthNet.uav[20] utilizationFail 0
scalar OsgEarthNet.uav[20] simulationTime 259200
scalar OsgEarthNet.uav[21] utilizationSecMission 24937.266805836
scalar OsgEarthNet.uav[21] utilizationSecMaintenance 20926.142761829
scalar OsgEarthNet.uav[21] utilizationSecCharge 167442.7267685
scalar OsgEarthNet.uav[21] utilizationSecIdle 45893.862663832
scalar OsgEarthNet.uav[21] utilizationEnergyMission 114913.88402557
scalar OsgEarthNet.uav[21] utilizationEnergyMaintenance 97714.281200409
scalar OsgEarthNet.uav[21] utilizationEnergyCharge 211537.01098633
scalar OsgEarthNet.uav[21] utilizationEnergyOverdrawMission 0
scalar OsgEarthNet.uav[21] utilizationEnergyOverdrawMaintenance 0
scalar OsgEarthNet.uav[21] utilizationCountMissions 47
scalar OsgEarthNet.uav[21] utilizationCountManeuversMission 416
scalar OsgEarthNet.uav[21] utilizationCountManeuversMaintenance 94
scalar OsgEarthNet.uav[21] utilizationCountChargeState 47
scalar OsgEarthNet.uav[21] utilizationCountOverdrawnAfterMission 0
scalar OsgEarthNet.uav[21] utilizationCountIdleState 43
scalar OsgEarthNet.uav[21] utilizationFail 0
scalar OsgEarthNet.uav[21] simulationTime 259200
scalar OsgEarthNet.uav[22] utilizationSecMission 28880.513358562
scalar OsgEarthNet.uav[22] utilizationSecMaintenance 20566.745111018
scalar OsgEarthNet.uav[22] utilizationSecCharge 181211.28756849
scalar OsgEarthNet.uav[22] utilizationSecIdle 28541.452961934
scalar OsgEarthNet.uav[22] utilizationEnergyMission 135634.31036377
scalar OsgEarthNet.uav[22] utilizationEnergyMaintenance 94272.951934814
scalar OsgEarthNet.uav[22] utilizationEnergyCharge 229554.94824219
scalar OsgEarthNet.uav[22] utilizationEnergyOverdrawMission 0
scalar OsgEarthNet.uav[22] utilizationEnergyOverdrawMaintenance 0
scalar OsgEarthNet.uav[22] utilizationCountMissions 50
scalar OsgEarthNet.uav[22] utilizationCountManeuversMission 478
scalar OsgEarthNet.uav[22] utilizationCountManeuversMaintenance 100
scalar OsgEarthNet.uav[22] utilizationCountChargeState 50
scalar OsgEarthNet.uav[22] utilizationCountOverdrawnAfterMission 0
scalar OsgEarthNet.uav[22] utilizationCountIdleState 48
scalar OsgEarthNet.uav[22] utilizationFail 0
scalar OsgEarthNet.uav[22] simulationTime 259200
scalar OsgEarthNet.uav[23] utilizationSecMission 26269.91744563
scalar OsgEarthNet.uav[23] utilizationSecMaintenance 20165.845655194
scalar OsgEarthNet.uav[23] utilizationSecCharge 166645.84805027
scalar OsgEarthNet.uav[23] utilizationSecIdle 46118.38784891
scalar OsgEarthNet.uav[23] utilizationEnergyMission 120586.43157196
scalar OsgEarthNet.uav[23] utilizationEnergyMaintenance 92803.926971436
scalar OsgEarthNet.uav[23] utilizationEnergyCharge 211372.43457031
scalar OsgEarthNet.uav[23] utilizationEnergyOverdrawMission 0
scalar OsgEarthNet.uav[23] utilizationEnergyOverdrawMaintenance 0
scalar OsgEarthNet.uav[23] utilizationCountMissions 47
scalar OsgEarthNet.uav[23] utilizationCountManeuversMission 420
scalar OsgEarthNet.uav[23] utilizationCountManeuversMaintenance 94
scalar OsgEarthNet.uav[23] utilizationCountChargeState 47
scalar OsgEarthNet.uav[23] utilizationCountOverdrawnAfterMission 0
scalar OsgEarthNet.uav[23] utilizationCountIdleState 41
scalar OsgEarthNet.uav[23] utilizationFail 0
scalar OsgEarthNet.uav[23] simulationTime 259200
scalar OsgEarthNet.uav[24] utilizationSecMission 26613.586183738
scalar OsgEarthNet.uav[24] utilizationSecMaintenance 20318.68763734
scalar OsgEarthNet.uav[24] utilizationSecCharge 171101.04437103
scalar OsgEarthNet.uav[24] utilizationSecIdle 41166.680807888
scalar OsgEarthNet.uav[24] utilizationEnergyMission 122302.82609558
scalar OsgEarthNet.uav[24] utilizationEnergyMaintenance 94565.879753113
scalar OsgEarthNet.uav[24] utilizationEnergyCharge 216582.91967773
scalar OsgEarthNet.uav[24] utilizationEnergyOverdrawMission 0
scalar OsgEarthNet.uav[24] utilizationEnergyOverdrawMaintenance 0
scalar OsgEarthNet.uav[24] utilizationCountMissions 48
scalar OsgEarthNet.uav[24] utilizationCountManeuversMission 430
scalar OsgEarthNet.uav[24] utilizationCountManeuversMaintenance 96
scalar OsgEarthNet.uav[24] utilizationCountChargeState 48
scalar OsgEarthNet.uav[24] utilizationCountOverdrawnAfterMission 0
scalar OsgEarthNet.uav[24] utilizationCountIdleState 44
scalar OsgEarthNet.uav[24] utilizationFail 0
scalar OsgEarthNet.uav[24] simulationTime 259200
scalar OsgEarthNet.uav[25] utilizationSecMission 27902.726126095
scalar OsgEarthNet.uav[25] utilizationSecMaintenance 21477.051946181
scalar OsgEarthNet.uav[25] utilizationSecCharge 181538.22092772
scalar OsgEarthNet.uav[25] utilizationSecIdle 28282
scalar OsgEarthNet.uav[25] utilizationEnergyMission 129653.59566425
scalar OsgEarthNet.uav[25] utilizationEnergyMaintenance 99696.377952576
scalar OsgEarthNet.uav[25] utilizationEnergyCharge 229408.72680664
scalar OsgEarthNet.uav[25] utilizationEnergyOverdrawMission 0
scalar OsgEarthNet.uav[25] utilizationEnergyOverdrawMaintenance 0
scalar OsgEarthNet.uav[25] utilizationCountMissions 50
scalar OsgEarthNet.uav[25] utilizationCountManeuversMission 451
scalar OsgEarthNet.uav[25] utilizationCountManeuversMaintenance 99
scalar OsgEarthNet.uav[25] utilizationCountChargeState 50
scalar OsgEarthNet.uav[25] utilizationCountOverdrawnAfterMission 0
scalar OsgEarthNet.uav[25] utilizationCountIdleState 47
scalar OsgEarthNet.uav[25] utilizationFail 0
scalar OsgEarthNet.uav[25] simulationTime 259200
scalar OsgEarthNet.uav[26] utilizationSecMission 31785.847234595
scalar OsgEarthNet.uav[26] utilizationSecMaintenance 19772.003753036
scalar OsgEarthNet.uav[26] utilizationSecCharge 184900.14801237
scalar OsgEarthNet.uav[26] utilizationSecIdle 22742
scalar OsgEarthNet.uav[26] utilizationEnergyMission 146310.11765289
scalar OsgEarthNet.uav[26] utilizationEnergyMaintenance 91702.575149536
scalar OsgEarthNet.uav[26] utilizationEnergyCharge 233914.27758789
scalar OsgEarthNet.uav[26] utilizationEnergyOverdrawMission 0
scalar OsgEarthNet.uav[26] utilizationEnergyOverdrawMaintenance 0
scalar OsgEarthNet.uav[26] utilizationCountMissions 52
scalar OsgEarthNet.uav[26] utilizationCountManeuversMission 512
scalar OsgEarthNet.uav[26] utilizationCountManeuversMaintenance 103
scalar OsgEarthNet.uav[26] utilizationCountChargeState 52
scalar OsgEarthNet.uav[26] utilizationCountOverdrawnAfterMission 0
scalar OsgEarthNet.uav[26] utilizationCountIdleState 44
scalar OsgEarthNet.uav[26] utilizationFail 0
scalar OsgEarthNet.uav[26] simulationTime 259200
scalar OsgEarthNet.uav[27] utilizationSecMission 30136.842101588
scalar OsgEarthNet.uav[27] utilizationSecMaintenance 20373.340106908
scalar OsgEarthNet.uav[27] utilizationSecCharge 182673.81154811
scalar OsgEarthNet.uav[27] utilizationSecIdle 26016.00524339
scalar OsgEarthNet.uav[27] utilizationEnergyMission 138785.52839661
scalar OsgEarthNet.uav[27] utilizationEnergyMaintenance 93690.992397308
scalar OsgEarthNet.uav[27] utilizationEnergyCharge 231002.12988281
scalar OsgEarthNet.uav[27] utilizationEnergyOverdrawMission 0
scalar OsgEarthNet.uav[27] utilizationEnergyOverdrawMaintenance 0
scalar OsgEarthNet.uav[27] utilizationCountMissions 51
scalar OsgEarthNet.uav[27] utilizationCountManeuversMission 476
scalar OsgEarthNet.uav[27] utilizationCountManeuversMaintenance 102
scalar OsgEarthNet.uav[27] utilizationCountChargeState 51
scalar OsgEarthNet.uav[27] utilizationCountOverdrawnAfterMission 0
scalar OsgEarthNet.uav[27] utilizationCountIdleState 47
scalar OsgEarthNet.uav[27] utilizationFail 0
scalar OsgEarthNet.uav[27] simulationTime 259200
scalar OsgEarthNet.uav[28] utilizationSecMission 27447.957969994
scalar OsgEarthNet.uav[28] utilizationSecMaintenance 22711.099638101
scalar OsgEarthNet.uav[28] utilizationSecCharge 183590
scalar OsgEarthNet.uav[28] utilizationSecIdle 25450.941391906
scalar OsgEarthNet.uav[28] utilizationEnergyMission 126006.5431633
scalar OsgEarthNet.uav[28] utilizationEnergyMaintenance 105971.06398773
scalar OsgEarthNet.uav[28] utilizationEnergyCharge 232178.44311523
scalar OsgEarthNet.uav[28] utilizationEnergyOverdrawMission 0
scalar OsgEarthNet.uav[28] utilizationEnergyOverdrawMaintenance 0
scalar OsgEarthNet.uav[28] utilizationCountMissions 51
scalar OsgEarthNet.uav[28] utilizationCountManeuversMission 445
scalar OsgEarthNet.uav[28] utilizationCountManeuversMaintenance 102
scalar OsgEarthNet.uav[28] utilizationCountChargeState 51
scalar OsgEarthNet.uav[28] utilizationCountOverdrawnAfterMission 0
scalar OsgEarthNet.uav[28] utilizationCountIdleState 42
scalar OsgEarthNet.uav[28] utilizationFail 0
scalar OsgEarthNet.uav[28] simulationTime 259200
scalar OsgEarthNet.uav[29] utilizationSecMission 28482.200923427
scalar OsgEarthNet.uav[29] utilizationSecMaintenance 21377.553452323
scalar OsgEarthNet.uav[29] utilizationSecCharge 181674.34789794
scalar OsgEarthNet.uav[29] utilizationSecIdle 27665.896726312
scalar OsgEarthNet.uav[29] utilizationEnergyMission 131877.85771179
scalar OsgEarthNet.uav[29] utilizationEnergyMaintenance 100653.98379898
scalar OsgEarthNet.uav[29] utilizationEnergyCharge 232372.19458008
scalar OsgEarthNet.uav[29] utilizationEnergyOverdrawMission 0
scalar OsgEarthNet.uav[29] utilizationEnergyOverdrawMaintenance 0
scalar OsgEarthNet.uav[29] utilizationCountMissions 51
scalar OsgEarthNet.uav[29] utilizationCountManeuversMission 463
scalar OsgEarthNet.uav[29] utilizationCountManeuversMaintenance 102
scalar OsgEarthNet.uav[29] utilizationCountChargeState 51
scalar OsgEarthNet.uav[29] utilizationCountOverdrawnAfterMission 0
scalar OsgEarthNet.uav[29] utilizationCountIdleState 37
scalar OsgEarthNet.uav[29] utilizationFail 0
scalar OsgEarthNet.uav[29] simulationTime 259200
scalar OsgEarthNet.uav[30] utilizationSecMission 28444.572670238
scalar OsgEarthNet.uav[30] utilizationSecMaintenance 22921.748308554
scalar OsgEarthNet.uav[30] utilizationSecCharge 184141.32754788
scalar OsgEarthNet.uav[30] utilizationSecIdle 23692.350473324
scalar OsgEarthNet.uav[30] utilizationEnergyMission 131770.24445343
scalar OsgEarthNet.uav[30] utilizationEnergyMaintenance 106120.96219635
scalar OsgEarthNet.uav[30] utilizationEnergyCharge 233152.98895264
scalar OsgEarthNet.uav[30] utilizationEnergyOverdrawMission 0
scalar OsgEarthNet.uav[30] utilizationEnergyOverdrawMaintenance 0
scalar OsgEarthNet.uav[30] utilizationCountMissions 52
scalar OsgEarthNet.uav[30] utilizationCountManeuversMission 458
scalar OsgEarthNet.uav[30] utilizationCountManeuversMaintenance 104
scalar OsgEarthNet.uav[30] utilizationCountChargeState 52
scalar OsgEarthNet.uav[30] utilizationCountOverdrawnAfterMission 0
scalar OsgEarthNet.uav[30] utilizationCountIdleState 43
scalar OsgEarthNet.uav[30] utilizationFail 0
scalar OsgEarthNet.uav[30] simulationTime 259200
scalar OsgEarthNet.uav[31] utilizationSecMission 30972.120802593
scalar OsgEarthNet.uav[31] utilizationSecMaintenance 19782.519444595
scalar OsgEarthNet.uav[31] utilizationSecCharge 184384.30294885
scalar OsgEarthNet.uav[31] utilizationSecIdle 24061.055803961
scalar OsgEarthNet.uav[31] utilizationEnergyMission 140929.86440659
scalar OsgEarthNet.uav[31] utilizationEnergyMaintenance 91879.500114441
scalar OsgEarthNet.uav[31] utilizationEnergyCharge 232801.60522461
scalar OsgEarthNet.uav[31] utilizationEnergyOverdrawMission 0
scalar OsgEarthNet.uav[31] utilizationEnergyOverdrawMaintenance 0
scalar OsgEarthNet.uav[31] utilizationCountMissions 52
scalar OsgEarthNet.uav[31] utilizationCountManeuversMission 500
scalar OsgEarthNet.uav[31] utilizationCountManeuversMaintenance 104
scalar OsgEarthNet.uav[31] utilizationCountChargeState 52
scalar OsgEarthNet.uav[31] utilizationCountOverdrawnAfterMission 0
scalar OsgEarthNet.uav[31] utilizationCountIdleState 41
scalar OsgEarthNet.uav[31] utilizationFail 0
scalar OsgEarthNet.uav[31] simulationTime 259200
scalar OsgEarthNet.uav[32] utilizationSecMission 29636.38362556
scalar OsgEarthNet.uav[32] utilizationSecMaintenance 22027.265153618
scalar OsgEarthNet.uav[32] utilizationSecCharge 186840
scalar OsgEarthNet.uav[32] utilizationSecIdle 20696.350220821
scalar OsgEarthNet.uav[32] utilizationEnergyMission 136612.495656
scalar OsgEarthNet.uav[32] utilizationEnergyMaintenance 101571.77199173
scalar OsgEarthNet.uav[32] utilizationEnergyCharge 235604.8515625
scalar OsgEarthNet.uav[32] utilizationEnergyOverdrawMission 0
scalar OsgEarthNet.uav[32] utilizationEnergyOverdrawMaintenance 0
scalar OsgEarthNet.uav[32] utilizationCountMissions 52
scalar OsgEarthNet.uav[32] utilizationCountManeuversMission 492
scalar OsgEarthNet.uav[32] utilizationCountManeuversMaintenance 105
scalar OsgEarthNet.uav[32] utilizationCountChargeState 52
scalar OsgEarthNet.uav[32] utilizationCountOverdrawnAfterMission 0
scalar OsgEarthNet.uav[32] utilizationCountIdleState 45
scalar OsgEarthNet.uav[32] utilizationFail 0
scalar OsgEarthNet.uav[32] simulationTime 259200
scalar OsgEarthNet.uav[33] utilizationSecMission 29163.667176184
scalar OsgEarthNet.uav[33] utilizationSecMaintenance 21599.706582705
scalar OsgEarthNet.uav[33] utilizationSecCharge 185092.60697138
scalar OsgEarthNet.uav[33] utilizationSecIdle 23344.018269728
scalar OsgEarthNet.uav[33] utilizationEnergyMission 134832.71551514
scalar OsgEarthNet.uav[33] utilizationEnergyMaintenance 99855.697200775
scalar OsgEarthNet.uav[33] utilizationEnergyCharge 234478.6159668
scalar OsgEarthNet.uav[33] utilizationEnergyOverdrawMission 0
scalar OsgEarthNet.uav[33] utilizationEnergyOverdrawMaintenance 0
scalar OsgEarthNet.uav[33] utilizationCountMissions 52
scalar OsgEarthNet.uav[33] utilizationCountManeuversMission 468
scalar OsgEarthNet.uav[33] utilizationCountManeuversMaintenance 104
scalar OsgEarthNet.uav[33] utilizationCountChargeState 52
scalar OsgEarthNet.uav[33] utilizationCountOverdrawnAfterMission 0
scalar OsgEarthNet.uav[33] utilizationCountIdleState 44
scalar OsgEarthNet.uav[33] utilizationFail 0
scalar OsgEarthNet.uav[33] simulationTime 259200
scalar OsgEarthNet.uav[34] utilizationSecMission 28730.24916312
scalar OsgEarthNet.uav[34] utilizationSecMaintenance 22616.480725035
scalar OsgEarthNet.uav[34] utilizationSecCharge 186173.88510726
scalar OsgEarthNet.uav[34] utilizationSecIdle 21679.384004586
scalar OsgEarthNet.uav[34] utilizationEnergyMission 131025.62454224
scalar OsgEarthNet.uav[34] utilizationEnergyMaintenance 104642.95278549
scalar OsgEarthNet.uav[34] utilizationEnergyCharge 235531.43530273
scalar OsgEarthNet.uav[34] utilizationEnergyOverdrawMission 0
scalar OsgEarthNet.uav[34] utilizationEnergyOverdrawMaintenance 0
scalar OsgEarthNet.uav[34] utilizationCountMissions 52
scalar OsgEarthNet.uav[34] utilizationCountManeuversMission 466
scalar OsgEarthNet.uav[34] utilizationCountManeuversMaintenance 104
scalar OsgEarthNet.uav[34] utilizationCountChargeState 52
scalar OsgEarthNet.uav[34] utilizationCountOverdrawnAfterMission 0
scalar OsgEarthNet.uav[34] utilizationCountIdleState 38
scalar OsgEarthNet.uav[34] utilizationFail 0
scalar OsgEarthNet.uav[34] simulationTime 259200
scalar OsgEarthNet.uav[35] utilizationSecMission 28618.072129005
scalar OsgEarthNet.uav[35] utilizationSecMaintenance 23323.181368551
scalar OsgEarthNet.uav[35] utilizationSecCharge 190409.11442178
scalar OsgEarthNet.uav[35] utilizationSecIdle 16849.631080665
scalar OsgEarthNet.uav[35] utilizationEnergyMission 133510.83994293
scalar OsgEarthNet.uav[35] utilizationEnergyMaintenance 109060.80870056
scalar OsgEarthNet.uav[35] utilizationEnergyCharge 242298.50732422
scalar OsgEarthNet.uav[35] utilizationEnergyOverdrawMission 0
scalar OsgEarthNet.uav[35] utilizationEnergyOverdrawMaintenance 0
scalar OsgEarthNet.uav[35] utilizationCountMissions 53
scalar OsgEarthNet.uav[35] utilizationCountManeuversMission 461
scalar OsgEarthNet.uav[35] utilizationCountManeuversMaintenance 106
scalar OsgEarthNet.uav[35] utilizationCountChargeState 53
scalar OsgEarthNet.uav[35] utilizationCountOverdrawnAfterMission 0
scalar OsgEarthNet.uav[35] utilizationCountIdleState 39
scalar OsgEarthNet.uav[35] utilizationFail 0
scalar OsgEarthNet.uav[35] simulationTime 259200
scalar OsgEarthNet.uav[36] utilizationSecMission 29120.914170185
scalar OsgEarthNet.uav[36] utilizationSecMaintenance 21693.880521849
scalar OsgEarthNet.uav[36] utilizationSecCharge 185660
scalar OsgEarthNet.uav[36] utilizationSecIdle 22725.204307967
scalar OsgEarthNet.uav[36] utilizationEnergyMission 135530.13530731
scalar OsgEarthNet.uav[36] utilizationEnergyMaintenance 100355.17542648
scalar OsgEarthNet.uav[36] utilizationEnergyCharge 234932.67993164
scalar OsgEarthNet.uav[36] utilizationEnergyOverdrawMission 0
scalar OsgEarthNet.uav[36] utilizationEnergyOverdrawMaintenance 0
scalar OsgEarthNet.uav[36] utilizationCountMissions 52
scalar OsgEarthNet.uav[36] utilizationCountManeuversMission 476
scalar OsgEarthNet.uav[36] utilizationCountManeuversMaintenance 104
scalar OsgEarthNet.uav[36] utilizationCountChargeState 52
scalar OsgEarthNet.uav[36] utilizationCountOverdrawnAfterMission 0
scalar OsgEarthNet.uav[36] utilizationCountIdleState 40
scalar OsgEarthNet.uav[36] utilizationFail 0
scalar OsgEarthNet.uav[36] simulationTime 259200
scalar OsgEarthNet.uav[37] utilizationSecMission 30227.036276105
scalar OsgEarthNet.uav[37] utilizationSecMaintenance 22940.962723895
scalar OsgEarthNet.uav[37] utilizationSecCharge 193130
scalar OsgEarthNet.uav[37] utilizationSecIdle 12902
scalar OsgEarthNet.uav[37] utilizationEnergyMission 140322.93884277
scalar OsgEarthNet.uav[37] utilizationEnergyMaintenance 106855.0864
scalar OsgEarthNet.uav[37] utilizationEnergyCharge 245310.34863281
scalar OsgEarthNet.uav[37] utilizationEnergyOverdrawMission 0
scalar OsgEarthNet.uav[37] utilizationEnergyOverdrawMaintenance 0
scalar OsgEarthNet.uav[37] utilizationCountMissions 54
scalar OsgEarthNet.uav[37] utilizationCountManeuversMission 494
scalar OsgEarthNet.uav[37] utilizationCountManeuversMaintenance 108
scalar OsgEarthNet.uav[37] utilizationCountChargeState 54
scalar OsgEarthNet.uav[37] utilizationCountOverdrawnAfterMission 0
scalar OsgEarthNet.uav[37] utilizationCountIdleState 35
scalar OsgEarthNet.uav[37] utilizationFail 0
scalar OsgEarthNet.uav[37] simulationTime 259200
scalar OsgEarthNet.uav[38] utilizationSecMission 30747.642735198
scalar OsgEarthNet.uav[38] utilizationSecMaintenance 23273.459889659
scalar OsgEarthNet.uav[38] utilizationSecCharge 192800
scalar OsgEarthNet.uav[38] utilizationSecIdle 12378.896375144
scalar OsgEarthNet.uav[38] utilizationEnergyMission 142149.47451645
scalar OsgEarthNet.uav[38] utilizationEnergyMaintenance 107037.96069717
scalar OsgEarthNet.uav[38] utilizationEnergyCharge 245688.91577148
scalar OsgEarthNet.uav[38] utilizationEnergyOverdrawMission 0
scalar OsgEarthNet.uav[38] utilizationEnergyOverdrawMaintenance 0
scalar OsgEarthNet.uav[38] utilizationCountMissions 54
scalar OsgEarthNet.uav[38] utilizationCountManeuversMission 516
scalar OsgEarthNet.uav[38] utilizationCountManeuversMaintenance 109
scalar OsgEarthNet.uav[38] utilizationCountChargeState 54
scalar OsgEarthNet.uav[38] utilizationCountOverdrawnAfterMission 0
scalar OsgEarthNet.uav[38] utilizationCountIdleState 36
scalar OsgEarthNet.uav[38] utilizationFail 0
scalar OsgEarthNet.uav[38] simulationTime 259200
scalar OsgEarthNet.uav[39] utilizationSecMission 31916.690608521
scalar OsgEarthNet.uav[39] utilizationSecMaintenance 21335.339248238
scalar OsgEarthNet.uav[39] utilizationSecCharge 190955.8293301
scalar OsgEarthNet.uav[39] utilizationSecIdle 14992.139813144
scalar OsgEarthNet.uav[39] utilizationEnergyMission 147533.51006699
scalar OsgEarthNet.uav[39] utilizationEnergyMaintenance 98761.360237122
scalar OsgEarthNet.uav[39] utilizationEnergyCharge 242017.7925415
scalar OsgEarthNet.uav[39] utilizationEnergyOverdrawMission 0
scalar OsgEarthNet.uav[39] utilizationEnergyOverdrawMaintenance 0
scalar OsgEarthNet.uav[39] utilizationCountMissions 54
scalar OsgEarthNet.uav[39] utilizationCountManeuversMission 515
scalar OsgEarthNet.uav[39] utilizationCountManeuversMaintenance 108
scalar OsgEarthNet.uav[39] utilizationCountChargeState 54
scalar OsgEarthNet.uav[39] utilizationCountOverdrawnAfterMission 0
scalar OsgEarthNet.uav[39] utilizationCountIdleState 40
scalar OsgEarthNet.uav[39] utilizationFail 0
scalar OsgEarthNet.uav[39] simulationTime 259200
scalar OsgEarthNet.uav[40] utilizationSecMission 29665.704864504
scalar OsgEarthNet.uav[40] utilizationSecMaintenance 24450.820340211
scalar OsgEarthNet.uav[40] utilizationSecCharge 192278.20322117
scalar OsgEarthNet.uav[40] utilizationSecIdle 12805.270574118
scalar OsgEarthNet.uav[40] utilizationEnergyMission 136375.18888855
scalar OsgEarthNet.uav[40] utilizationEnergyMaintenance 112776.70419312
scalar OsgEarthNet.uav[40] utilizationEnergyCharge 246165.97155762
scalar OsgEarthNet.uav[40] utilizationEnergyOverdrawMission 0
scalar OsgEarthNet.uav[40] utilizationEnergyOverdrawMaintenance 0
scalar OsgEarthNet.uav[40] utilizationCountMissions 55
scalar OsgEarthNet.uav[40] utilizationCountManeuversMission 491
scalar OsgEarthNet.uav[40] utilizationCountManeuversMaintenance 110
scalar OsgEarthNet.uav[40] utilizationCountChargeState 55
scalar OsgEarthNet.uav[40] utilizationCountOverdrawnAfterMission 0
scalar OsgEarthNet.uav[40] utilizationCountIdleState 29
scalar OsgEarthNet.uav[40] utilizationFail 0
scalar OsgEarthNet.uav[40] simulationTime 259200
scalar OsgEarthNet.uav[41] utilizationSecMission 30752.707732849
scalar OsgEarthNet.uav[41] utilizationSecMaintenance 23216.067796231
scalar OsgEarthNet.uav[41] utilizationSecCharge 194016.6115814
scalar OsgEarthNet.uav[41] utilizationSecIdle 11214.611889516
scalar OsgEarthNet.uav[41] utilizationEnergyMission 143146.3789978
scalar OsgEarthNet.uav[41] utilizationEnergyMaintenance 105953.67071152
scalar OsgEarthNet.uav[41] utilizationEnergyCharge 246464.01391602
scalar OsgEarthNet.uav[41] utilizationEnergyOverdrawMission 0
scalar OsgEarthNet.uav[41] utilizationEnergyOverdrawMaintenance 0
scalar OsgEarthNet.uav[41] utilizationCountMissions 55
scalar OsgEarthNet.uav[41] utilizationCountManeuversMission 507
scalar OsgEarthNet.uav[41] utilizationCountManeuversMaintenance 110
scalar OsgEarthNet.uav[41] utilizationCountChargeState 55
scalar OsgEarthNet.uav[41] utilizationCountOverdrawnAfterMission 0
scalar OsgEarthNet.uav[41] utilizationCountIdleState 37
scalar OsgEarthNet.uav[41] utilizationFail 0
scalar OsgEarthNet.uav[41] simulationTime 259200
scalar OsgEarthNet.uav[42] utilizationSecMission 30108.613304576
scalar OsgEarthNet.uav[42] utilizationSecMaintenance 23913.614977932
scalar OsgEarthNet.uav[42] utilizationSecCharge 194387.06265705
scalar OsgEarthNet.uav[42] utilizationSecIdle 10790.708060445
scalar OsgEarthNet.uav[42] utilizationEnergyMission 139132.82564163
scalar OsgEarthNet.uav[42] utilizationEnergyMaintenance 111131.31657791
scalar OsgEarthNet.uav[42] utilizationEnergyCharge 248926.08837891
scalar OsgEarthNet.uav[42] utilizationEnergyOverdrawMission 0
scalar OsgEarthNet.uav[42] utilizationEnergyOverdrawMaintenance 0
scalar OsgEarthNet.uav[42] utilizationCountMissions 55
scalar OsgEarthNet.uav[42] utilizationCountManeuversMission 492
scalar OsgEarthNet.uav[42] utilizationCountManeuversMaintenance 110
scalar OsgEarthNet.uav[42] utilizationCountChargeState 55
scalar OsgEarthNet.uav[42] utilizationCountOverdrawnAfterMission 0
scalar OsgEarthNet.uav[42] utilizationCountIdleState 29
scalar OsgEarthNet.uav[42] utilizationFail 0
scalar OsgEarthNet.uav[42] simulationTime 259200
scalar OsgEarthNet.uav[43] utilizationSecMission 29514.697448038
scalar OsgEarthNet.uav[43] utilizationSecMaintenance 24516.871610377
scalar OsgEarthNet.uav[43] utilizationSecCharge 195706.42994158
scalar OsgEarthNet.uav[43] utilizationSecIdle 9462
scalar OsgEarthNet.uav[43] utilizationEnergyMission 136726.76283264
scalar OsgEarthNet.uav[43] utilizationEnergyMaintenance 114158.58525467
scalar OsgEarthNet.uav[43] utilizationEnergyCharge 250636.77587891
scalar OsgEarthNet.uav[43] utilizationEnergyOverdrawMission 0
scalar OsgEarthNet.uav[43] utilizationEnergyOverdrawMaintenance 0
scalar OsgEarthNet.uav[43] utilizationCountMissions 55
scalar OsgEarthNet.uav[43] utilizationCountManeuversMission 485
scalar OsgEarthNet.uav[43] utilizationCountManeuversMaintenance 109
scalar OsgEarthNet.uav[43] utilizationCountChargeState 55
scalar OsgEarthNet.uav[43] utilizationCountOverdrawnAfterMission 0
scalar OsgEarthNet.uav[43] utilizationCountIdleState 33
scalar OsgEarthNet.uav[43] utilizationFail 0
scalar OsgEarthNet.uav[43] simulationTime 259200
scalar OsgEarthNet.uav[44] utilizationSecMission 28780.5450168
scalar OsgEarthNet.uav[44] utilizationSecMaintenance 26182.138896986
scalar OsgEarthNet.uav[44] utilizationSecCharge 194970
scalar OsgEarthNet.uav[44] utilizationSecIdle 9267.3150862146
scalar OsgEarthNet.uav[44] utilizationEnergyMission 133076.90751648
scalar OsgEarthNet.uav[44] utilizationEnergyMaintenance 120693.32501712
scalar OsgEarthNet.uav[44] utilizationEnergyCharge 249279.58276367
scalar OsgEarthNet.uav[44] utilizationEnergyOverdrawMission 0
scalar OsgEarthNet.uav[44] utilizationEnergyOverdrawMaintenance 0
scalar OsgEarthNet.uav[44] utilizationCountMissions 56
scalar OsgEarthNet.uav[44] utilizationCountManeuversMission 483
scalar OsgEarthNet.uav[44] utilizationCountManeuversMaintenance 112
scalar OsgEarthNet.uav[44] utilizationCountChargeState 55
scalar OsgEarthNet.uav[44] utilizationCountOverdrawnAfterMission 0
scalar OsgEarthNet.uav[44] utilizationCountIdleState 31
scalar OsgEarthNet.uav[44] utilizationFail 0
scalar OsgEarthNet.uav[44] simulationTime 259200
scalar OsgEarthNet.cs[0] usedPower 2322313.1569379
scalar OsgEarthNet.cs[0] chargedPower 2322313.1569379
scalar OsgEarthNet.cs[0] chargedMobileNodes 431
scalar OsgEarthNet.cs[0] reservations 520
scalar OsgEarthNet.cs[1] usedPower 3041504.6906768
scalar OsgEarthNet.cs[1] chargedPower 3041504.6906768
scalar OsgEarthNet.cs[1] chargedMobileNodes 565
scalar OsgEarthNet.cs[1] reservations 658
scalar OsgEarthNet.cs[2] usedPower 4871803.0350781
scalar OsgEarthNet.cs[2] chargedPower 4871803.0350781
scalar OsgEarthNet.cs[2] chargedMobileNodes 922
scalar OsgEarthNet.cs[2] reservations 1082

