version 2
run Szenario_Hotel_Gabelbach-90-20180710-04:07:13-43876
attr configname Szenario_Hotel_Gabelbach
attr datetime 20180710-04:07:13
attr experiment Szenario_Hotel_Gabelbach
attr inifile omnetpp.ini
attr iterationvars "$numUAVs=70, $replM=0"
attr iterationvarsf numUAVs=70,replM=0-
attr measurement "$numUAVs=70, $replM=0"
attr network OsgEarthNet
attr processid 43876
attr repetition 10
attr replication #10
attr resultdir results
attr runnumber 90
attr seedset 90
itervar numUAVs 70
itervar replM 0
param *.osgEarthScene.scene "\"Szenario_Hotel_Gabelbach.earth\""
param *.playgroundLatitude 50.6830269
param *.playgroundLongitude 10.8538055
param *.playgroundWidth 3500m
param *.playgroundHeight 3500m
param *.numCSs 3
param *.cs[0].posX 3537m
param *.cs[0].posY 965m
param *.cs[0].posZ 538m
param *.cs[1].posX 312m
param *.cs[1].posY 1262m
param *.cs[1].posZ 539m
param *.cs[2].posX 2185m
param *.cs[2].posY 3026m
param *.cs[2].posZ 777m
param *.cs[3].posX 10m
param *.cs[3].posY 2200m
param *.cs[3].posZ 560m
param *.cs[4].posX 750m
param *.cs[4].posY 200m
param *.cs[4].posZ 540m
param *.cs[5].posX 2450m
param *.cs[5].posY 180m
param *.cs[5].posZ 524m
param *.cs[6].posX 3140m
param *.cs[6].posY 1790m
param *.cs[6].posZ 606m
param *.numUAVs 70
param *.uav[*].replacementMethod 0
param *.*.timeStep 10s
param *.uav[*].commandPreviewCommandCount 20
param *.missionControl.missionFiles "\"missions\\\\Szenario_WB_Hotel_Gabelbach_Mission_Hotel.waypoints,missions\\\\Szenario_WB_Hotel_Gabelbach_Mission_Kickelhahn.waypoints,missions\\\\Szenario_WB_Hotel_Gabelbach_Mission_Ilmenau_Sportplatz.waypoints,missions\\\\Szenario_WB_Hotel_Gabelbach_Mission_Manebach_Mitte.waypoints,missions\\\\Szenario_WB_Hotel_Gabelbach_Mission_Manebach_Sued.waypoints\""
param *.missionControl.missionFiles "\"missions\\\\Szenario_WB_Hotel_Gabelbach_Mission_Hotel.waypoints,missions\\\\Szenario_WB_Hotel_Gabelbach_Mission_Kickelhahn.waypoints,missions\\\\Szenario_WB_Hotel_Gabelbach_Mission_Ilmenau_Sportplatz.waypoints,missions\\\\Szenario_WB_Hotel_Gabelbach_Mission_Manebach_Mitte.waypoints,missions\\\\Szenario_WB_Hotel_Gabelbach_Mission_Manebach_Sued.waypoints,missions\\\\Szenario_WB_Hotel_Gabelbach_Hover_HoheSchlaufe.waypoints,missions\\\\Szenario_WB_Hotel_Gabelbach_Hover_Kickelhahn.waypoints,missions\\\\Szenario_WB_Hotel_Gabelbach_Hover_Gabelbachskopf.waypoints,missions\\\\Szenario_WB_Hotel_Gabelbach_Hover_Dachskopf.waypoints\""
param *.uav[0].startX 3537m
param *.uav[0].startY 965m
param *.uav[0].startZ 539m
param *.uav[1].startX 312m
param *.uav[1].startY 1262m
param *.uav[1].startZ 540m
param *.uav[2].startX 2185m
param *.uav[2].startY 3026m
param *.uav[2].startZ 778m
param *.uav[3].startX 3537m
param *.uav[3].startY 965m
param *.uav[3].startZ 539m
param *.uav[4].startX 312m
param *.uav[4].startY 1262m
param *.uav[4].startZ 540m
param *.uav[5].startX 2185m
param *.uav[5].startY 3026m
param *.uav[5].startZ 778m
param *.uav[6].startX 3537m
param *.uav[6].startY 965m
param *.uav[6].startZ 539m
param *.uav[7].startX 312m
param *.uav[7].startY 1262m
param *.uav[7].startZ 540m
param *.uav[8].startX 2185m
param *.uav[8].startY 3026m
param *.uav[8].startZ 778m
param *.uav[9].startX 3537m
param *.uav[9].startY 965m
param *.uav[9].startZ 539m
param *.uav[10].startX 3537m
param *.uav[10].startY 965m
param *.uav[10].startZ 539m
param *.uav[11].startX 312m
param *.uav[11].startY 1262m
param *.uav[11].startZ 540m
param *.uav[12].startX 2185m
param *.uav[12].startY 3026m
param *.uav[12].startZ 778m
param *.uav[13].startX 3537m
param *.uav[13].startY 965m
param *.uav[13].startZ 539m
param *.uav[14].startX 312m
param *.uav[14].startY 1262m
param *.uav[14].startZ 540m
param *.uav[15].startX 2185m
param *.uav[15].startY 3026m
param *.uav[15].startZ 778m
param *.uav[16].startX 3537m
param *.uav[16].startY 965m
param *.uav[16].startZ 539m
param *.uav[17].startX 312m
param *.uav[17].startY 1262m
param *.uav[17].startZ 540m
param *.uav[18].startX 2185m
param *.uav[18].startY 3026m
param *.uav[18].startZ 778m
param *.uav[19].startX 3537m
param *.uav[19].startY 965m
param *.uav[19].startZ 539m
param *.uav[20].startX 3537m
param *.uav[20].startY 965m
param *.uav[20].startZ 539m
param *.uav[21].startX 312m
param *.uav[21].startY 1262m
param *.uav[21].startZ 540m
param *.uav[22].startX 2185m
param *.uav[22].startY 3026m
param *.uav[22].startZ 778m
param *.uav[23].startX 3537m
param *.uav[23].startY 965m
param *.uav[23].startZ 539m
param *.uav[24].startX 312m
param *.uav[24].startY 1262m
param *.uav[24].startZ 540m
param *.uav[25].startX 2185m
param *.uav[25].startY 3026m
param *.uav[25].startZ 778m
param *.uav[26].startX 3537m
param *.uav[26].startY 965m
param *.uav[26].startZ 539m
param *.uav[27].startX 312m
param *.uav[27].startY 1262m
param *.uav[27].startZ 540m
param *.uav[28].startX 2185m
param *.uav[28].startY 3026m
param *.uav[28].startZ 778m
param *.uav[29].startX 3537m
param *.uav[29].startY 965m
param *.uav[29].startZ 539m
param *.uav[30].startX 3537m
param *.uav[30].startY 965m
param *.uav[30].startZ 539m
param *.uav[31].startX 312m
param *.uav[31].startY 1262m
param *.uav[31].startZ 540m
param *.uav[32].startX 2185m
param *.uav[32].startY 3026m
param *.uav[32].startZ 778m
param *.uav[33].startX 3537m
param *.uav[33].startY 965m
param *.uav[33].startZ 539m
param *.uav[34].startX 312m
param *.uav[34].startY 1262m
param *.uav[34].startZ 540m
param *.uav[35].startX 2185m
param *.uav[35].startY 3026m
param *.uav[35].startZ 778m
param *.uav[36].startX 3537m
param *.uav[36].startY 965m
param *.uav[36].startZ 539m
param *.uav[37].startX 312m
param *.uav[37].startY 1262m
param *.uav[37].startZ 540m
param *.uav[38].startX 2185m
param *.uav[38].startY 3026m
param *.uav[38].startZ 778m
param *.uav[39].startX 3537m
param *.uav[39].startY 965m
param *.uav[39].startZ 539m
param *.uav[40].startX 3537m
param *.uav[40].startY 965m
param *.uav[40].startZ 539m
param *.uav[41].startX 312m
param *.uav[41].startY 1262m
param *.uav[41].startZ 540m
param *.uav[42].startX 2185m
param *.uav[42].startY 3026m
param *.uav[42].startZ 778m
param *.uav[43].startX 3537m
param *.uav[43].startY 965m
param *.uav[43].startZ 539m
param *.uav[44].startX 312m
param *.uav[44].startY 1262m
param *.uav[44].startZ 540m
param *.uav[45].startX 2185m
param *.uav[45].startY 3026m
param *.uav[45].startZ 778m
param *.uav[46].startX 3537m
param *.uav[46].startY 965m
param *.uav[46].startZ 539m
param *.uav[47].startX 312m
param *.uav[47].startY 1262m
param *.uav[47].startZ 540m
param *.uav[48].startX 2185m
param *.uav[48].startY 3026m
param *.uav[48].startZ 778m
param *.uav[49].startX 3537m
param *.uav[49].startY 965m
param *.uav[49].startZ 539m
param *.uav[50].startX 3537m
param *.uav[50].startY 965m
param *.uav[50].startZ 539m
param *.uav[51].startX 312m
param *.uav[51].startY 1262m
param *.uav[51].startZ 540m
param *.uav[52].startX 2185m
param *.uav[52].startY 3026m
param *.uav[52].startZ 778m
param *.uav[53].startX 3537m
param *.uav[53].startY 965m
param *.uav[53].startZ 539m
param *.uav[54].startX 312m
param *.uav[54].startY 1262m
param *.uav[54].startZ 540m
param *.uav[55].startX 2185m
param *.uav[55].startY 3026m
param *.uav[55].startZ 778m
param *.uav[56].startX 3537m
param *.uav[56].startY 965m
param *.uav[56].startZ 539m
param *.uav[57].startX 312m
param *.uav[57].startY 1262m
param *.uav[57].startZ 540m
param *.uav[58].startX 2185m
param *.uav[58].startY 3026m
param *.uav[58].startZ 778m
param *.uav[59].startX 3537m
param *.uav[59].startY 965m
param *.uav[59].startZ 539m
param *.uav[60].startX 3537m
param *.uav[60].startY 965m
param *.uav[60].startZ 539m
param *.uav[61].startX 312m
param *.uav[61].startY 1262m
param *.uav[61].startZ 540m
param *.uav[62].startX 2185m
param *.uav[62].startY 3026m
param *.uav[62].startZ 778m
param *.uav[63].startX 3537m
param *.uav[63].startY 965m
param *.uav[63].startZ 539m
param *.uav[64].startX 312m
param *.uav[64].startY 1262m
param *.uav[64].startZ 540m
param *.uav[65].startX 2185m
param *.uav[65].startY 3026m
param *.uav[65].startZ 778m
param *.uav[66].startX 3537m
param *.uav[66].startY 965m
param *.uav[66].startZ 539m
param *.uav[67].startX 312m
param *.uav[67].startY 1262m
param *.uav[67].startZ 540m
param *.uav[68].startX 2185m
param *.uav[68].startY 3026m
param *.uav[68].startZ 778m
param *.uav[69].startX 3537m
param *.uav[69].startY 965m
param *.uav[69].startZ 539m
param *.uav[70].startX 3537m
param *.uav[70].startY 965m
param *.uav[70].startZ 539m
param *.uav[71].startX 312m
param *.uav[71].startY 1262m
param *.uav[71].startZ 540m
param *.uav[72].startX 2185m
param *.uav[72].startY 3026m
param *.uav[72].startZ 778m
param *.uav[73].startX 3537m
param *.uav[73].startY 965m
param *.uav[73].startZ 539m
param *.uav[74].startX 312m
param *.uav[74].startY 1262m
param *.uav[74].startZ 540m
param *.uav[75].startX 2185m
param *.uav[75].startY 3026m
param *.uav[75].startZ 778m
param *.uav[76].startX 3537m
param *.uav[76].startY 965m
param *.uav[76].startZ 539m
param *.uav[77].startX 312m
param *.uav[77].startY 1262m
param *.uav[77].startZ 540m
param *.uav[78].startX 2185m
param *.uav[78].startY 3026m
param *.uav[78].startZ 778m
param *.uav[79].startX 3537m
param *.uav[79].startY 965m
param *.uav[79].startZ 539m
param *.uav[80].startX 3537m
param *.uav[80].startY 965m
param *.uav[80].startZ 539m
param *.uav[81].startX 312m
param *.uav[81].startY 1262m
param *.uav[81].startZ 540m
param *.uav[82].startX 2185m
param *.uav[82].startY 3026m
param *.uav[82].startZ 778m
param *.uav[83].startX 3537m
param *.uav[83].startY 965m
param *.uav[83].startZ 539m
param *.uav[84].startX 312m
param *.uav[84].startY 1262m
param *.uav[84].startZ 540m
param *.uav[85].startX 2185m
param *.uav[85].startY 3026m
param *.uav[85].startZ 778m
param *.uav[86].startX 3537m
param *.uav[86].startY 965m
param *.uav[86].startZ 539m
param *.uav[87].startX 312m
param *.uav[87].startY 1262m
param *.uav[87].startZ 540m
param *.uav[88].startX 2185m
param *.uav[88].startY 3026m
param *.uav[88].startZ 778m
param *.uav[89].startX 3537m
param *.uav[89].startY 965m
param *.uav[89].startZ 539m
param *.uav[90].startX 3537m
param *.uav[90].startY 965m
param *.uav[90].startZ 539m
param *.uav[91].startX 312m
param *.uav[91].startY 1262m
param *.uav[91].startZ 540m
param *.uav[92].startX 2185m
param *.uav[92].startY 3026m
param *.uav[92].startZ 778m
param *.uav[93].startX 3537m
param *.uav[93].startY 965m
param *.uav[93].startZ 539m
param *.uav[94].startX 312m
param *.uav[94].startY 1262m
param *.uav[94].startZ 540m
param *.uav[95].startX 2185m
param *.uav[95].startY 3026m
param *.uav[95].startZ 778m
param *.uav[96].startX 3537m
param *.uav[96].startY 965m
param *.uav[96].startZ 539m
param *.uav[97].startX 312m
param *.uav[97].startY 1262m
param *.uav[97].startZ 540m
param *.uav[98].startX 2185m
param *.uav[98].startY 3026m
param *.uav[98].startZ 778m
param *.uav[99].startX 3537m
param *.uav[99].startY 965m
param *.uav[99].startZ 539m
param *.osgEarthScene.scene "\"boston.earth\""
param *.playgroundLatitude 42.3558
param *.playgroundLongitude -71.0677
param *.playgroundWidth 400m
param *.playgroundHeight 200m
param *.channelController.connectionColor "\"#0000FF40\""
param *.channelController.showConnections false
param *.uav[*].modelURL "\"quadrocopter.small.obj.15.scale.0,0,90.rot\""
param *.uav[*].labelColor "\"#FF7C00CC\""
param *.uav[*].label2Color "\"#FF7C00EE\""
param *.uav[*].batteryCapacity 5200mAh
param *.uav[*].batteryRemaining uav[index].batteryCapacity
param *.uav[*].predictionQuantile 0.95
param *.uav[*].replacementMethod 2
param *.uav[*].weightedSumWeight 0.5
param *.cs[*].modelURL "\"chargingstation_v1.osgt.2.scale.0,0,0.rot.0,0,-15e-1.trans\""
param *.cs[*].spotsWaiting 999
param *.cs[*].spotsCharging 999
param *.cs[*].chargeEffectivenessPercentage 100
param *.cs[*].nonLinearPhaseStartPercentage 85
param *.cs[*].chargeCurrent 6.0A
param *.cs[*].prioritizeFastCharge true
param *.missionControl.replacementSearchMethod 0
param *.*.timeStep 9s

scalar OsgEarthNet.uav[0] utilizationSecMission 533.25626237336
scalar OsgEarthNet.uav[0] utilizationSecMaintenance 458.46460240178
scalar OsgEarthNet.uav[0] utilizationSecCharge 3560
scalar OsgEarthNet.uav[0] utilizationSecIdle 254648.27813522
scalar OsgEarthNet.uav[0] utilizationEnergyMission 2269.2187194824
scalar OsgEarthNet.uav[0] utilizationEnergyMaintenance 2129.2816429138
scalar OsgEarthNet.uav[0] utilizationEnergyCharge 4454.2358398438
scalar OsgEarthNet.uav[0] utilizationEnergyOverdrawMission 0
scalar OsgEarthNet.uav[0] utilizationEnergyOverdrawMaintenance 0
scalar OsgEarthNet.uav[0] utilizationCountMissions 1
scalar OsgEarthNet.uav[0] utilizationCountManeuversMission 8
scalar OsgEarthNet.uav[0] utilizationCountManeuversMaintenance 2
scalar OsgEarthNet.uav[0] utilizationCountChargeState 1
scalar OsgEarthNet.uav[0] utilizationCountOverdrawnAfterMission 0
scalar OsgEarthNet.uav[0] utilizationCountIdleState 2
scalar OsgEarthNet.uav[0] utilizationFail 0
scalar OsgEarthNet.uav[0] simulationTime 259200
scalar OsgEarthNet.uav[1] utilizationSecMission 1678.6781774963
scalar OsgEarthNet.uav[1] utilizationSecMaintenance 1265.9309371683
scalar OsgEarthNet.uav[1] utilizationSecCharge 10950
scalar OsgEarthNet.uav[1] utilizationSecIdle 245305.38988534
scalar OsgEarthNet.uav[1] utilizationEnergyMission 7781.973197937
scalar OsgEarthNet.uav[1] utilizationEnergyMaintenance 5994.8024635315
scalar OsgEarthNet.uav[1] utilizationEnergyCharge 13776.777832031
scalar OsgEarthNet.uav[1] utilizationEnergyOverdrawMission 0
scalar OsgEarthNet.uav[1] utilizationEnergyOverdrawMaintenance 0
scalar OsgEarthNet.uav[1] utilizationCountMissions 3
scalar OsgEarthNet.uav[1] utilizationCountManeuversMission 30
scalar OsgEarthNet.uav[1] utilizationCountManeuversMaintenance 6
scalar OsgEarthNet.uav[1] utilizationCountChargeState 3
scalar OsgEarthNet.uav[1] utilizationCountOverdrawnAfterMission 0
scalar OsgEarthNet.uav[1] utilizationCountIdleState 4
scalar OsgEarthNet.uav[1] utilizationFail 0
scalar OsgEarthNet.uav[1] simulationTime 259200
scalar OsgEarthNet.uav[2] utilizationSecMission 29049.71073611
scalar OsgEarthNet.uav[2] utilizationSecMaintenance 19333.728303955
scalar OsgEarthNet.uav[2] utilizationSecCharge 179004.55995993
scalar OsgEarthNet.uav[2] utilizationSecIdle 31812
scalar OsgEarthNet.uav[2] utilizationEnergyMission 135752.45918755
scalar OsgEarthNet.uav[2] utilizationEnergyMaintenance 89492.212982178
scalar OsgEarthNet.uav[2] utilizationEnergyCharge 225443.64697266
scalar OsgEarthNet.uav[2] utilizationEnergyOverdrawMission 0
scalar OsgEarthNet.uav[2] utilizationEnergyOverdrawMaintenance 0
scalar OsgEarthNet.uav[2] utilizationCountMissions 49
scalar OsgEarthNet.uav[2] utilizationCountManeuversMission 479
scalar OsgEarthNet.uav[2] utilizationCountManeuversMaintenance 97
scalar OsgEarthNet.uav[2] utilizationCountChargeState 49
scalar OsgEarthNet.uav[2] utilizationCountOverdrawnAfterMission 0
scalar OsgEarthNet.uav[2] utilizationCountIdleState 49
scalar OsgEarthNet.uav[2] utilizationFail 0
scalar OsgEarthNet.uav[2] simulationTime 259200
scalar OsgEarthNet.uav[3] utilizationSecMission 650.68693590098
scalar OsgEarthNet.uav[3] utilizationSecMaintenance 350.31285707965
scalar OsgEarthNet.uav[3] utilizationSecCharge 3670
scalar OsgEarthNet.uav[3] utilizationSecIdle 254528.99920702
scalar OsgEarthNet.uav[3] utilizationEnergyMission 3040.1272888184
scalar OsgEarthNet.uav[3] utilizationEnergyMaintenance 1542.8741073608
scalar OsgEarthNet.uav[3] utilizationEnergyCharge 4582.9990234375
scalar OsgEarthNet.uav[3] utilizationEnergyOverdrawMission 0
scalar OsgEarthNet.uav[3] utilizationEnergyOverdrawMaintenance 0
scalar OsgEarthNet.uav[3] utilizationCountMissions 1
scalar OsgEarthNet.uav[3] utilizationCountManeuversMission 9
scalar OsgEarthNet.uav[3] utilizationCountManeuversMaintenance 2
scalar OsgEarthNet.uav[3] utilizationCountChargeState 1
scalar OsgEarthNet.uav[3] utilizationCountOverdrawnAfterMission 0
scalar OsgEarthNet.uav[3] utilizationCountIdleState 2
scalar OsgEarthNet.uav[3] utilizationFail 0
scalar OsgEarthNet.uav[3] simulationTime 259200
scalar OsgEarthNet.uav[4] utilizationSecMission 26566.041535941
scalar OsgEarthNet.uav[4] utilizationSecMaintenance 21728.843685056
scalar OsgEarthNet.uav[4] utilizationSecCharge 174870.50188949
scalar OsgEarthNet.uav[4] utilizationSecIdle 36034.611889516
scalar OsgEarthNet.uav[4] utilizationEnergyMission 123026.44817352
scalar OsgEarthNet.uav[4] utilizationEnergyMaintenance 100440.61602402
scalar OsgEarthNet.uav[4] utilizationEnergyCharge 219471.94403076
scalar OsgEarthNet.uav[4] utilizationEnergyOverdrawMission 0
scalar OsgEarthNet.uav[4] utilizationEnergyOverdrawMaintenance 0
scalar OsgEarthNet.uav[4] utilizationCountMissions 49
scalar OsgEarthNet.uav[4] utilizationCountManeuversMission 442
scalar OsgEarthNet.uav[4] utilizationCountManeuversMaintenance 98
scalar OsgEarthNet.uav[4] utilizationCountChargeState 49
scalar OsgEarthNet.uav[4] utilizationCountOverdrawnAfterMission 0
scalar OsgEarthNet.uav[4] utilizationCountIdleState 49
scalar OsgEarthNet.uav[4] utilizationFail 0
scalar OsgEarthNet.uav[4] simulationTime 259200
scalar OsgEarthNet.uav[5] utilizationSecMission 828.1936691689
scalar OsgEarthNet.uav[5] utilizationSecMaintenance 156.97870384097
scalar OsgEarthNet.uav[5] utilizationSecCharge 3740
scalar OsgEarthNet.uav[5] utilizationSecIdle 254474.82662699
scalar OsgEarthNet.uav[5] utilizationEnergyMission 3664.4038391113
scalar OsgEarthNet.uav[5] utilizationEnergyMaintenance 782.45726776123
scalar OsgEarthNet.uav[5] utilizationEnergyCharge 4684.4814453125
scalar OsgEarthNet.uav[5] utilizationEnergyOverdrawMission 0
scalar OsgEarthNet.uav[5] utilizationEnergyOverdrawMaintenance 0
scalar OsgEarthNet.uav[5] utilizationCountMissions 1
scalar OsgEarthNet.uav[5] utilizationCountManeuversMission 13
scalar OsgEarthNet.uav[5] utilizationCountManeuversMaintenance 2
scalar OsgEarthNet.uav[5] utilizationCountChargeState 1
scalar OsgEarthNet.uav[5] utilizationCountOverdrawnAfterMission 0
scalar OsgEarthNet.uav[5] utilizationCountIdleState 2
scalar OsgEarthNet.uav[5] utilizationFail 0
scalar OsgEarthNet.uav[5] simulationTime 259200
scalar OsgEarthNet.uav[6] utilizationSecMission 343.68863208153
scalar OsgEarthNet.uav[6] utilizationSecMaintenance 589.36831023416
scalar OsgEarthNet.uav[6] utilizationSecCharge 3390
scalar OsgEarthNet.uav[6] utilizationSecIdle 254876.94205768
scalar OsgEarthNet.uav[6] utilizationEnergyMission 1478.9267883301
scalar OsgEarthNet.uav[6] utilizationEnergyMaintenance 2645.3676872253
scalar OsgEarthNet.uav[6] utilizationEnergyCharge 4124.298828125
scalar OsgEarthNet.uav[6] utilizationEnergyOverdrawMission 0
scalar OsgEarthNet.uav[6] utilizationEnergyOverdrawMaintenance 0
scalar OsgEarthNet.uav[6] utilizationCountMissions 1
scalar OsgEarthNet.uav[6] utilizationCountManeuversMission 7
scalar OsgEarthNet.uav[6] utilizationCountManeuversMaintenance 2
scalar OsgEarthNet.uav[6] utilizationCountChargeState 1
scalar OsgEarthNet.uav[6] utilizationCountOverdrawnAfterMission 0
scalar OsgEarthNet.uav[6] utilizationCountIdleState 2
scalar OsgEarthNet.uav[6] utilizationFail 0
scalar OsgEarthNet.uav[6] simulationTime 259200
scalar OsgEarthNet.uav[7] utilizationSecMission 29799.711408975
scalar OsgEarthNet.uav[7] utilizationSecMaintenance 19402.788809577
scalar OsgEarthNet.uav[7] utilizationSecCharge 178695.49878145
scalar OsgEarthNet.uav[7] utilizationSecIdle 31302
scalar OsgEarthNet.uav[7] utilizationEnergyMission 137816.91220093
scalar OsgEarthNet.uav[7] utilizationEnergyMaintenance 89042.952445984
scalar OsgEarthNet.uav[7] utilizationEnergyCharge 224314.27807617
scalar OsgEarthNet.uav[7] utilizationEnergyOverdrawMission 0
scalar OsgEarthNet.uav[7] utilizationEnergyOverdrawMaintenance 0
scalar OsgEarthNet.uav[7] utilizationCountMissions 50
scalar OsgEarthNet.uav[7] utilizationCountManeuversMission 499
scalar OsgEarthNet.uav[7] utilizationCountManeuversMaintenance 99
scalar OsgEarthNet.uav[7] utilizationCountChargeState 50
scalar OsgEarthNet.uav[7] utilizationCountOverdrawnAfterMission 0
scalar OsgEarthNet.uav[7] utilizationCountIdleState 50
scalar OsgEarthNet.uav[7] utilizationFail 0
scalar OsgEarthNet.uav[7] simulationTime 259200
scalar OsgEarthNet.uav[8] utilizationSecMission 4303.3253737146
scalar OsgEarthNet.uav[8] utilizationSecMaintenance 2815.5910508108
scalar OsgEarthNet.uav[8] utilizationSecCharge 26160
scalar OsgEarthNet.uav[8] utilizationSecIdle 225921.08257547
scalar OsgEarthNet.uav[8] utilizationEnergyMission 20178.436843872
scalar OsgEarthNet.uav[8] utilizationEnergyMaintenance 12943.450092316
scalar OsgEarthNet.uav[8] utilizationEnergyCharge 33122.598144531
scalar OsgEarthNet.uav[8] utilizationEnergyOverdrawMission 0
scalar OsgEarthNet.uav[8] utilizationEnergyOverdrawMaintenance 0
scalar OsgEarthNet.uav[8] utilizationCountMissions 7
scalar OsgEarthNet.uav[8] utilizationCountManeuversMission 68
scalar OsgEarthNet.uav[8] utilizationCountManeuversMaintenance 14
scalar OsgEarthNet.uav[8] utilizationCountChargeState 7
scalar OsgEarthNet.uav[8] utilizationCountOverdrawnAfterMission 0
scalar OsgEarthNet.uav[8] utilizationCountIdleState 8
scalar OsgEarthNet.uav[8] utilizationFail 0
scalar OsgEarthNet.uav[8] simulationTime 259200
scalar OsgEarthNet.uav[9] utilizationSecMission 486.07928439727
scalar OsgEarthNet.uav[9] utilizationSecMaintenance 388.64752970246
scalar OsgEarthNet.uav[9] utilizationSecCharge 3450
scalar OsgEarthNet.uav[9] utilizationSecIdle 254875.2721859
scalar OsgEarthNet.uav[9] utilizationEnergyMission 2300.496887207
scalar OsgEarthNet.uav[9] utilizationEnergyMaintenance 1817.5024032593
scalar OsgEarthNet.uav[9] utilizationEnergyCharge 4246.3447265625
scalar OsgEarthNet.uav[9] utilizationEnergyOverdrawMission 0
scalar OsgEarthNet.uav[9] utilizationEnergyOverdrawMaintenance 0
scalar OsgEarthNet.uav[9] utilizationCountMissions 1
scalar OsgEarthNet.uav[9] utilizationCountManeuversMission 8
scalar OsgEarthNet.uav[9] utilizationCountManeuversMaintenance 2
scalar OsgEarthNet.uav[9] utilizationCountChargeState 1
scalar OsgEarthNet.uav[9] utilizationCountOverdrawnAfterMission 0
scalar OsgEarthNet.uav[9] utilizationCountIdleState 2
scalar OsgEarthNet.uav[9] utilizationFail 0
scalar OsgEarthNet.uav[9] simulationTime 259200
scalar OsgEarthNet.uav[10] utilizationSecMission 12002.262979277
scalar OsgEarthNet.uav[10] utilizationSecMaintenance 8348.6953219703
scalar OsgEarthNet.uav[10] utilizationSecCharge 75540
scalar OsgEarthNet.uav[10] utilizationSecIdle 163309.04069875
scalar OsgEarthNet.uav[10] utilizationEnergyMission 55983.393745422
scalar OsgEarthNet.uav[10] utilizationEnergyMaintenance 38834.942714691
scalar OsgEarthNet.uav[10] utilizationEnergyCharge 94518.422851562
scalar OsgEarthNet.uav[10] utilizationEnergyOverdrawMission 0
scalar OsgEarthNet.uav[10] utilizationEnergyOverdrawMaintenance 0
scalar OsgEarthNet.uav[10] utilizationCountMissions 21
scalar OsgEarthNet.uav[10] utilizationCountManeuversMission 196
scalar OsgEarthNet.uav[10] utilizationCountManeuversMaintenance 42
scalar OsgEarthNet.uav[10] utilizationCountChargeState 21
scalar OsgEarthNet.uav[10] utilizationCountOverdrawnAfterMission 0
scalar OsgEarthNet.uav[10] utilizationCountIdleState 22
scalar OsgEarthNet.uav[10] utilizationFail 0
scalar OsgEarthNet.uav[10] simulationTime 259200
scalar OsgEarthNet.uav[11] utilizationSecMission 18572.632085626
scalar OsgEarthNet.uav[11] utilizationSecMaintenance 14680.78569994
scalar OsgEarthNet.uav[11] utilizationSecCharge 120081.79081645
scalar OsgEarthNet.uav[11] utilizationSecIdle 105864.79039798
scalar OsgEarthNet.uav[11] utilizationEnergyMission 86393.505592346
scalar OsgEarthNet.uav[11] utilizationEnergyMaintenance 68650.473625183
scalar OsgEarthNet.uav[11] utilizationEnergyCharge 150614.73028564
scalar OsgEarthNet.uav[11] utilizationEnergyOverdrawMission 0
scalar OsgEarthNet.uav[11] utilizationEnergyOverdrawMaintenance 0
scalar OsgEarthNet.uav[11] utilizationCountMissions 34
scalar OsgEarthNet.uav[11] utilizationCountManeuversMission 307
scalar OsgEarthNet.uav[11] utilizationCountManeuversMaintenance 68
scalar OsgEarthNet.uav[11] utilizationCountChargeState 34
scalar OsgEarthNet.uav[11] utilizationCountOverdrawnAfterMission 0
scalar OsgEarthNet.uav[11] utilizationCountIdleState 34
scalar OsgEarthNet.uav[11] utilizationFail 0
scalar OsgEarthNet.uav[11] simulationTime 259200
scalar OsgEarthNet.uav[12] utilizationSecMission 2535.7867229124
scalar OsgEarthNet.uav[12] utilizationSecMaintenance 2435.310610285
scalar OsgEarthNet.uav[12] utilizationSecCharge 18250
scalar OsgEarthNet.uav[12] utilizationSecIdle 235978.9016668
scalar OsgEarthNet.uav[12] utilizationEnergyMission 12004.345695496
scalar OsgEarthNet.uav[12] utilizationEnergyMaintenance 10768.568904877
scalar OsgEarthNet.uav[12] utilizationEnergyCharge 22772.914550781
scalar OsgEarthNet.uav[12] utilizationEnergyOverdrawMission 0
scalar OsgEarthNet.uav[12] utilizationEnergyOverdrawMaintenance 0
scalar OsgEarthNet.uav[12] utilizationCountMissions 5
scalar OsgEarthNet.uav[12] utilizationCountManeuversMission 47
scalar OsgEarthNet.uav[12] utilizationCountManeuversMaintenance 10
scalar OsgEarthNet.uav[12] utilizationCountChargeState 5
scalar OsgEarthNet.uav[12] utilizationCountOverdrawnAfterMission 0
scalar OsgEarthNet.uav[12] utilizationCountIdleState 6
scalar OsgEarthNet.uav[12] utilizationFail 0
scalar OsgEarthNet.uav[12] simulationTime 259200
scalar OsgEarthNet.uav[13] utilizationSecMission 536.06111026321
scalar OsgEarthNet.uav[13] utilizationSecMaintenance 387.76056727994
scalar OsgEarthNet.uav[13] utilizationSecCharge 3500
scalar OsgEarthNet.uav[13] utilizationSecIdle 254776.17732246
scalar OsgEarthNet.uav[13] utilizationEnergyMission 2466.9367828369
scalar OsgEarthNet.uav[13] utilizationEnergyMaintenance 1825.9711532593
scalar OsgEarthNet.uav[13] utilizationEnergyCharge 4292.9067382812
scalar OsgEarthNet.uav[13] utilizationEnergyOverdrawMission 0
scalar OsgEarthNet.uav[13] utilizationEnergyOverdrawMaintenance 0
scalar OsgEarthNet.uav[13] utilizationCountMissions 1
scalar OsgEarthNet.uav[13] utilizationCountManeuversMission 8
scalar OsgEarthNet.uav[13] utilizationCountManeuversMaintenance 2
scalar OsgEarthNet.uav[13] utilizationCountChargeState 1
scalar OsgEarthNet.uav[13] utilizationCountOverdrawnAfterMission 0
scalar OsgEarthNet.uav[13] utilizationCountIdleState 2
scalar OsgEarthNet.uav[13] utilizationFail 0
scalar OsgEarthNet.uav[13] simulationTime 259200
scalar OsgEarthNet.uav[14] utilizationSecMission 651.00239942633
scalar OsgEarthNet.uav[14] utilizationSecMaintenance 335.83102590171
scalar OsgEarthNet.uav[14] utilizationSecCharge 3620
scalar OsgEarthNet.uav[14] utilizationSecIdle 254593.16557467
scalar OsgEarthNet.uav[14] utilizationEnergyMission 3029.3524169922
scalar OsgEarthNet.uav[14] utilizationEnergyMaintenance 1523.598033905
scalar OsgEarthNet.uav[14] utilizationEnergyCharge 4552.9536132812
scalar OsgEarthNet.uav[14] utilizationEnergyOverdrawMission 0
scalar OsgEarthNet.uav[14] utilizationEnergyOverdrawMaintenance 0
scalar OsgEarthNet.uav[14] utilizationCountMissions 1
scalar OsgEarthNet.uav[14] utilizationCountManeuversMission 12
scalar OsgEarthNet.uav[14] utilizationCountManeuversMaintenance 2
scalar OsgEarthNet.uav[14] utilizationCountChargeState 1
scalar OsgEarthNet.uav[14] utilizationCountOverdrawnAfterMission 0
scalar OsgEarthNet.uav[14] utilizationCountIdleState 2
scalar OsgEarthNet.uav[14] utilizationFail 0
scalar OsgEarthNet.uav[14] simulationTime 259200
scalar OsgEarthNet.uav[15] utilizationSecMission 26565.876487916
scalar OsgEarthNet.uav[15] utilizationSecMaintenance 18647.217769197
scalar OsgEarthNet.uav[15] utilizationSecCharge 165180
scalar OsgEarthNet.uav[15] utilizationSecIdle 48806.904742888
scalar OsgEarthNet.uav[15] utilizationEnergyMission 122169.0004425
scalar OsgEarthNet.uav[15] utilizationEnergyMaintenance 86516.715328217
scalar OsgEarthNet.uav[15] utilizationEnergyCharge 208229.61279297
scalar OsgEarthNet.uav[15] utilizationEnergyOverdrawMission 0
scalar OsgEarthNet.uav[15] utilizationEnergyOverdrawMaintenance 136.38374328613
scalar OsgEarthNet.uav[15] utilizationCountMissions 45
scalar OsgEarthNet.uav[15] utilizationCountManeuversMission 429
scalar OsgEarthNet.uav[15] utilizationCountManeuversMaintenance 90
scalar OsgEarthNet.uav[15] utilizationCountChargeState 45
scalar OsgEarthNet.uav[15] utilizationCountOverdrawnAfterMission 1
scalar OsgEarthNet.uav[15] utilizationCountIdleState 46
scalar OsgEarthNet.uav[15] utilizationFail 0
scalar OsgEarthNet.uav[15] simulationTime 259200
scalar OsgEarthNet.uav[16] utilizationSecMission 454.87196921924
scalar OsgEarthNet.uav[16] utilizationSecMaintenance 587.37049424957
scalar OsgEarthNet.uav[16] utilizationSecCharge 3710
scalar OsgEarthNet.uav[16] utilizationSecIdle 254447.75653653
scalar OsgEarthNet.uav[16] utilizationEnergyMission 2039.7376861572
scalar OsgEarthNet.uav[16] utilizationEnergyMaintenance 2652.3447494507
scalar OsgEarthNet.uav[16] utilizationEnergyCharge 4692.0854492188
scalar OsgEarthNet.uav[16] utilizationEnergyOverdrawMission 0
scalar OsgEarthNet.uav[16] utilizationEnergyOverdrawMaintenance 0
scalar OsgEarthNet.uav[16] utilizationCountMissions 1
scalar OsgEarthNet.uav[16] utilizationCountManeuversMission 8
scalar OsgEarthNet.uav[16] utilizationCountManeuversMaintenance 2
scalar OsgEarthNet.uav[16] utilizationCountChargeState 1
scalar OsgEarthNet.uav[16] utilizationCountOverdrawnAfterMission 0
scalar OsgEarthNet.uav[16] utilizationCountIdleState 2
scalar OsgEarthNet.uav[16] utilizationFail 0
scalar OsgEarthNet.uav[16] simulationTime 259200
scalar OsgEarthNet.uav[17] utilizationSecMission 6725.2437820636
scalar OsgEarthNet.uav[17] utilizationSecMaintenance 5337.7523594189
scalar OsgEarthNet.uav[17] utilizationSecCharge 42082.651207613
scalar OsgEarthNet.uav[17] utilizationSecIdle 205054.3516509
scalar OsgEarthNet.uav[17] utilizationEnergyMission 31012.312080383
scalar OsgEarthNet.uav[17] utilizationEnergyMaintenance 24982.938308716
scalar OsgEarthNet.uav[17] utilizationEnergyCharge 53781.471923828
scalar OsgEarthNet.uav[17] utilizationEnergyOverdrawMission 0
scalar OsgEarthNet.uav[17] utilizationEnergyOverdrawMaintenance 0
scalar OsgEarthNet.uav[17] utilizationCountMissions 12
scalar OsgEarthNet.uav[17] utilizationCountManeuversMission 112
scalar OsgEarthNet.uav[17] utilizationCountManeuversMaintenance 24
scalar OsgEarthNet.uav[17] utilizationCountChargeState 12
scalar OsgEarthNet.uav[17] utilizationCountOverdrawnAfterMission 0
scalar OsgEarthNet.uav[17] utilizationCountIdleState 12
scalar OsgEarthNet.uav[17] utilizationFail 0
scalar OsgEarthNet.uav[17] simulationTime 259200
scalar OsgEarthNet.uav[18] utilizationSecMission 18931.979703079
scalar OsgEarthNet.uav[18] utilizationSecMaintenance 12348.777354451
scalar OsgEarthNet.uav[18] utilizationSecCharge 116990
scalar OsgEarthNet.uav[18] utilizationSecIdle 110929.24194247
scalar OsgEarthNet.uav[18] utilizationEnergyMission 89860.50138855
scalar OsgEarthNet.uav[18] utilizationEnergyMaintenance 57246.350448608
scalar OsgEarthNet.uav[18] utilizationEnergyCharge 146942.35180664
scalar OsgEarthNet.uav[18] utilizationEnergyOverdrawMission 0
scalar OsgEarthNet.uav[18] utilizationEnergyOverdrawMaintenance 7.3738269805908
scalar OsgEarthNet.uav[18] utilizationCountMissions 32
scalar OsgEarthNet.uav[18] utilizationCountManeuversMission 308
scalar OsgEarthNet.uav[18] utilizationCountManeuversMaintenance 64
scalar OsgEarthNet.uav[18] utilizationCountChargeState 32
scalar OsgEarthNet.uav[18] utilizationCountOverdrawnAfterMission 1
scalar OsgEarthNet.uav[18] utilizationCountIdleState 33
scalar OsgEarthNet.uav[18] utilizationFail 0
scalar OsgEarthNet.uav[18] simulationTime 259200
scalar OsgEarthNet.uav[19] utilizationSecMission 30615.363409174
scalar OsgEarthNet.uav[19] utilizationSecMaintenance 17972.635590826
scalar OsgEarthNet.uav[19] utilizationSecCharge 175210
scalar OsgEarthNet.uav[19] utilizationSecIdle 35402
scalar OsgEarthNet.uav[19] utilizationEnergyMission 141479.83877563
scalar OsgEarthNet.uav[19] utilizationEnergyMaintenance 82873.432876618
scalar OsgEarthNet.uav[19] utilizationEnergyCharge 220237.14038086
scalar OsgEarthNet.uav[19] utilizationEnergyOverdrawMission 0
scalar OsgEarthNet.uav[19] utilizationEnergyOverdrawMaintenance 0
scalar OsgEarthNet.uav[19] utilizationCountMissions 49
scalar OsgEarthNet.uav[19] utilizationCountManeuversMission 506
scalar OsgEarthNet.uav[19] utilizationCountManeuversMaintenance 97
scalar OsgEarthNet.uav[19] utilizationCountChargeState 48
scalar OsgEarthNet.uav[19] utilizationCountOverdrawnAfterMission 0
scalar OsgEarthNet.uav[19] utilizationCountIdleState 49
scalar OsgEarthNet.uav[19] utilizationFail 0
scalar OsgEarthNet.uav[19] simulationTime 259200
scalar OsgEarthNet.uav[20] utilizationSecMission 650.68693590098
scalar OsgEarthNet.uav[20] utilizationSecMaintenance 350.31285707965
scalar OsgEarthNet.uav[20] utilizationSecCharge 3760
scalar OsgEarthNet.uav[20] utilizationSecIdle 254438.99920702
scalar OsgEarthNet.uav[20] utilizationEnergyMission 3084.7330474854
scalar OsgEarthNet.uav[20] utilizationEnergyMaintenance 1652.912651062
scalar OsgEarthNet.uav[20] utilizationEnergyCharge 4737.6469726562
scalar OsgEarthNet.uav[20] utilizationEnergyOverdrawMission 0
scalar OsgEarthNet.uav[20] utilizationEnergyOverdrawMaintenance 0
scalar OsgEarthNet.uav[20] utilizationCountMissions 1
scalar OsgEarthNet.uav[20] utilizationCountManeuversMission 9
scalar OsgEarthNet.uav[20] utilizationCountManeuversMaintenance 2
scalar OsgEarthNet.uav[20] utilizationCountChargeState 1
scalar OsgEarthNet.uav[20] utilizationCountOverdrawnAfterMission 0
scalar OsgEarthNet.uav[20] utilizationCountIdleState 2
scalar OsgEarthNet.uav[20] utilizationFail 0
scalar OsgEarthNet.uav[20] simulationTime 259200
scalar OsgEarthNet.uav[21] utilizationSecMission 25480.356136721
scalar OsgEarthNet.uav[21] utilizationSecMaintenance 18018.962027914
scalar OsgEarthNet.uav[21] utilizationSecCharge 160120.66255245
scalar OsgEarthNet.uav[21] utilizationSecIdle 55580.018282913
scalar OsgEarthNet.uav[21] utilizationEnergyMission 119034.38071823
scalar OsgEarthNet.uav[21] utilizationEnergyMaintenance 83978.205314636
scalar OsgEarthNet.uav[21] utilizationEnergyCharge 202546.37792969
scalar OsgEarthNet.uav[21] utilizationEnergyOverdrawMission 0
scalar OsgEarthNet.uav[21] utilizationEnergyOverdrawMaintenance 0
scalar OsgEarthNet.uav[21] utilizationCountMissions 44
scalar OsgEarthNet.uav[21] utilizationCountManeuversMission 427
scalar OsgEarthNet.uav[21] utilizationCountManeuversMaintenance 88
scalar OsgEarthNet.uav[21] utilizationCountChargeState 44
scalar OsgEarthNet.uav[21] utilizationCountOverdrawnAfterMission 0
scalar OsgEarthNet.uav[21] utilizationCountIdleState 44
scalar OsgEarthNet.uav[21] utilizationFail 0
scalar OsgEarthNet.uav[21] simulationTime 259200
scalar OsgEarthNet.uav[22] utilizationSecMission 17000.642402923
scalar OsgEarthNet.uav[22] utilizationSecMaintenance 9435.2203030092
scalar OsgEarthNet.uav[22] utilizationSecCharge 97990
scalar OsgEarthNet.uav[22] utilizationSecIdle 134774.13629407
scalar OsgEarthNet.uav[22] utilizationEnergyMission 78276.355052948
scalar OsgEarthNet.uav[22] utilizationEnergyMaintenance 44077.460697174
scalar OsgEarthNet.uav[22] utilizationEnergyCharge 122979.93334961
scalar OsgEarthNet.uav[22] utilizationEnergyOverdrawMission 0
scalar OsgEarthNet.uav[22] utilizationEnergyOverdrawMaintenance 0
scalar OsgEarthNet.uav[22] utilizationCountMissions 27
scalar OsgEarthNet.uav[22] utilizationCountManeuversMission 269
scalar OsgEarthNet.uav[22] utilizationCountManeuversMaintenance 54
scalar OsgEarthNet.uav[22] utilizationCountChargeState 27
scalar OsgEarthNet.uav[22] utilizationCountOverdrawnAfterMission 0
scalar OsgEarthNet.uav[22] utilizationCountIdleState 28
scalar OsgEarthNet.uav[22] utilizationFail 0
scalar OsgEarthNet.uav[22] simulationTime 259200
scalar OsgEarthNet.uav[23] utilizationSecMission 313.66140879233
scalar OsgEarthNet.uav[23] utilizationSecMaintenance 473.03391658586
scalar OsgEarthNet.uav[23] utilizationSecCharge 3110
scalar OsgEarthNet.uav[23] utilizationSecIdle 255303.30367462
scalar OsgEarthNet.uav[23] utilizationEnergyMission 1450.3038787842
scalar OsgEarthNet.uav[23] utilizationEnergyMaintenance 2135.6407089233
scalar OsgEarthNet.uav[23] utilizationEnergyCharge 3585.9501953125
scalar OsgEarthNet.uav[23] utilizationEnergyOverdrawMission 0
scalar OsgEarthNet.uav[23] utilizationEnergyOverdrawMaintenance 0
scalar OsgEarthNet.uav[23] utilizationCountMissions 1
scalar OsgEarthNet.uav[23] utilizationCountManeuversMission 5
scalar OsgEarthNet.uav[23] utilizationCountManeuversMaintenance 2
scalar OsgEarthNet.uav[23] utilizationCountChargeState 1
scalar OsgEarthNet.uav[23] utilizationCountOverdrawnAfterMission 0
scalar OsgEarthNet.uav[23] utilizationCountIdleState 2
scalar OsgEarthNet.uav[23] utilizationFail 0
scalar OsgEarthNet.uav[23] simulationTime 259200
scalar OsgEarthNet.uav[24] utilizationSecMission 26645.974949381
scalar OsgEarthNet.uav[24] utilizationSecMaintenance 18344.640046033
scalar OsgEarthNet.uav[24] utilizationSecCharge 164800
scalar OsgEarthNet.uav[24] utilizationSecIdle 49409.384004586
scalar OsgEarthNet.uav[24] utilizationEnergyMission 123839.34255105
scalar OsgEarthNet.uav[24] utilizationEnergyMaintenance 86374.252529144
scalar OsgEarthNet.uav[24] utilizationEnergyCharge 207350.38134766
scalar OsgEarthNet.uav[24] utilizationEnergyOverdrawMission 0
scalar OsgEarthNet.uav[24] utilizationEnergyOverdrawMaintenance 0
scalar OsgEarthNet.uav[24] utilizationCountMissions 45
scalar OsgEarthNet.uav[24] utilizationCountManeuversMission 440
scalar OsgEarthNet.uav[24] utilizationCountManeuversMaintenance 91
scalar OsgEarthNet.uav[24] utilizationCountChargeState 45
scalar OsgEarthNet.uav[24] utilizationCountOverdrawnAfterMission 0
scalar OsgEarthNet.uav[24] utilizationCountIdleState 46
scalar OsgEarthNet.uav[24] utilizationFail 0
scalar OsgEarthNet.uav[24] simulationTime 259200
scalar OsgEarthNet.uav[25] utilizationSecMission 28379.995414028
scalar OsgEarthNet.uav[25] utilizationSecMaintenance 19538.877803265
scalar OsgEarthNet.uav[25] utilizationSecCharge 171611.70043542
scalar OsgEarthNet.uav[25] utilizationSecIdle 39669.42534729
scalar OsgEarthNet.uav[25] utilizationEnergyMission 129736.46949005
scalar OsgEarthNet.uav[25] utilizationEnergyMaintenance 90315.605621338
scalar OsgEarthNet.uav[25] utilizationEnergyCharge 215342.70373535
scalar OsgEarthNet.uav[25] utilizationEnergyOverdrawMission 0
scalar OsgEarthNet.uav[25] utilizationEnergyOverdrawMaintenance 0
scalar OsgEarthNet.uav[25] utilizationCountMissions 48
scalar OsgEarthNet.uav[25] utilizationCountManeuversMission 462
scalar OsgEarthNet.uav[25] utilizationCountManeuversMaintenance 96
scalar OsgEarthNet.uav[25] utilizationCountChargeState 48
scalar OsgEarthNet.uav[25] utilizationCountOverdrawnAfterMission 0
scalar OsgEarthNet.uav[25] utilizationCountIdleState 48
scalar OsgEarthNet.uav[25] utilizationFail 0
scalar OsgEarthNet.uav[25] simulationTime 259200
scalar OsgEarthNet.uav[26] utilizationSecMission 26649.34135352
scalar OsgEarthNet.uav[26] utilizationSecMaintenance 19197.945927337
scalar OsgEarthNet.uav[26] utilizationSecCharge 165719.31959561
scalar OsgEarthNet.uav[26] utilizationSecIdle 47633.392123535
scalar OsgEarthNet.uav[26] utilizationEnergyMission 122967.33312225
scalar OsgEarthNet.uav[26] utilizationEnergyMaintenance 87431.588150024
scalar OsgEarthNet.uav[26] utilizationEnergyCharge 208583.83569336
scalar OsgEarthNet.uav[26] utilizationEnergyOverdrawMission 0
scalar OsgEarthNet.uav[26] utilizationEnergyOverdrawMaintenance 0
scalar OsgEarthNet.uav[26] utilizationCountMissions 46
scalar OsgEarthNet.uav[26] utilizationCountManeuversMission 431
scalar OsgEarthNet.uav[26] utilizationCountManeuversMaintenance 92
scalar OsgEarthNet.uav[26] utilizationCountChargeState 46
scalar OsgEarthNet.uav[26] utilizationCountOverdrawnAfterMission 0
scalar OsgEarthNet.uav[26] utilizationCountIdleState 46
scalar OsgEarthNet.uav[26] utilizationFail 0
scalar OsgEarthNet.uav[26] simulationTime 259200
scalar OsgEarthNet.uav[27] utilizationSecMission 28055.643007373
scalar OsgEarthNet.uav[27] utilizationSecMaintenance 17980.528231583
scalar OsgEarthNet.uav[27] utilizationSecCharge 166706.51267483
scalar OsgEarthNet.uav[27] utilizationSecIdle 46457.315086215
scalar OsgEarthNet.uav[27] utilizationEnergyMission 130376.30445862
scalar OsgEarthNet.uav[27] utilizationEnergyMaintenance 83978.567455292
scalar OsgEarthNet.uav[27] utilizationEnergyCharge 210857.50366211
scalar OsgEarthNet.uav[27] utilizationEnergyOverdrawMission 0
scalar OsgEarthNet.uav[27] utilizationEnergyOverdrawMaintenance 0
scalar OsgEarthNet.uav[27] utilizationCountMissions 46
scalar OsgEarthNet.uav[27] utilizationCountManeuversMission 467
scalar OsgEarthNet.uav[27] utilizationCountManeuversMaintenance 92
scalar OsgEarthNet.uav[27] utilizationCountChargeState 46
scalar OsgEarthNet.uav[27] utilizationCountOverdrawnAfterMission 0
scalar OsgEarthNet.uav[27] utilizationCountIdleState 46
scalar OsgEarthNet.uav[27] utilizationFail 0
scalar OsgEarthNet.uav[27] simulationTime 259200
scalar OsgEarthNet.uav[28] utilizationSecMission 621.17604176187
scalar OsgEarthNet.uav[28] utilizationSecMaintenance 313.76167006775
scalar OsgEarthNet.uav[28] utilizationSecCharge 3560
scalar OsgEarthNet.uav[28] utilizationSecIdle 254705.06128817
scalar OsgEarthNet.uav[28] utilizationEnergyMission 2942.4242630005
scalar OsgEarthNet.uav[28] utilizationEnergyMaintenance 1446.1669425964
scalar OsgEarthNet.uav[28] utilizationEnergyCharge 4388.59375
scalar OsgEarthNet.uav[28] utilizationEnergyOverdrawMission 0
scalar OsgEarthNet.uav[28] utilizationEnergyOverdrawMaintenance 0
scalar OsgEarthNet.uav[28] utilizationCountMissions 1
scalar OsgEarthNet.uav[28] utilizationCountManeuversMission 12
scalar OsgEarthNet.uav[28] utilizationCountManeuversMaintenance 2
scalar OsgEarthNet.uav[28] utilizationCountChargeState 1
scalar OsgEarthNet.uav[28] utilizationCountOverdrawnAfterMission 0
scalar OsgEarthNet.uav[28] utilizationCountIdleState 2
scalar OsgEarthNet.uav[28] utilizationFail 0
scalar OsgEarthNet.uav[28] simulationTime 259200
scalar OsgEarthNet.uav[29] utilizationSecMission 581.19640448947
scalar OsgEarthNet.uav[29] utilizationSecMaintenance 393.71026136566
scalar OsgEarthNet.uav[29] utilizationSecCharge 3790
scalar OsgEarthNet.uav[29] utilizationSecIdle 254435.09233414
scalar OsgEarthNet.uav[29] utilizationEnergyMission 2783.0096130371
scalar OsgEarthNet.uav[29] utilizationEnergyMaintenance 2011.1007003784
scalar OsgEarthNet.uav[29] utilizationEnergyCharge 4850.40625
scalar OsgEarthNet.uav[29] utilizationEnergyOverdrawMission 0
scalar OsgEarthNet.uav[29] utilizationEnergyOverdrawMaintenance 0
scalar OsgEarthNet.uav[29] utilizationCountMissions 1
scalar OsgEarthNet.uav[29] utilizationCountManeuversMission 9
scalar OsgEarthNet.uav[29] utilizationCountManeuversMaintenance 2
scalar OsgEarthNet.uav[29] utilizationCountChargeState 1
scalar OsgEarthNet.uav[29] utilizationCountOverdrawnAfterMission 0
scalar OsgEarthNet.uav[29] utilizationCountIdleState 2
scalar OsgEarthNet.uav[29] utilizationFail 0
scalar OsgEarthNet.uav[29] simulationTime 259200
scalar OsgEarthNet.uav[30] utilizationSecMission 313.66140879233
scalar OsgEarthNet.uav[30] utilizationSecMaintenance 473.03391658586
scalar OsgEarthNet.uav[30] utilizationSecCharge 3220
scalar OsgEarthNet.uav[30] utilizationSecIdle 255193.30367462
scalar OsgEarthNet.uav[30] utilizationEnergyMission 1376.7063751221
scalar OsgEarthNet.uav[30] utilizationEnergyMaintenance 2426.6235580444
scalar OsgEarthNet.uav[30] utilizationEnergyCharge 3803.3305664062
scalar OsgEarthNet.uav[30] utilizationEnergyOverdrawMission 0
scalar OsgEarthNet.uav[30] utilizationEnergyOverdrawMaintenance 0
scalar OsgEarthNet.uav[30] utilizationCountMissions 1
scalar OsgEarthNet.uav[30] utilizationCountManeuversMission 5
scalar OsgEarthNet.uav[30] utilizationCountManeuversMaintenance 2
scalar OsgEarthNet.uav[30] utilizationCountChargeState 1
scalar OsgEarthNet.uav[30] utilizationCountOverdrawnAfterMission 0
scalar OsgEarthNet.uav[30] utilizationCountIdleState 2
scalar OsgEarthNet.uav[30] utilizationFail 0
scalar OsgEarthNet.uav[30] simulationTime 259200
scalar OsgEarthNet.uav[31] utilizationSecMission 27138.989469356
scalar OsgEarthNet.uav[31] utilizationSecMaintenance 20323.895872549
scalar OsgEarthNet.uav[31] utilizationSecCharge 174650.43285021
scalar OsgEarthNet.uav[31] utilizationSecIdle 37086.680807888
scalar OsgEarthNet.uav[31] utilizationEnergyMission 124673.69179535
scalar OsgEarthNet.uav[31] utilizationEnergyMaintenance 95030.531429291
scalar OsgEarthNet.uav[31] utilizationEnergyCharge 219618.42919922
scalar OsgEarthNet.uav[31] utilizationEnergyOverdrawMission 0
scalar OsgEarthNet.uav[31] utilizationEnergyOverdrawMaintenance 0
scalar OsgEarthNet.uav[31] utilizationCountMissions 48
scalar OsgEarthNet.uav[31] utilizationCountManeuversMission 453
scalar OsgEarthNet.uav[31] utilizationCountManeuversMaintenance 96
scalar OsgEarthNet.uav[31] utilizationCountChargeState 48
scalar OsgEarthNet.uav[31] utilizationCountOverdrawnAfterMission 0
scalar OsgEarthNet.uav[31] utilizationCountIdleState 48
scalar OsgEarthNet.uav[31] utilizationFail 0
scalar OsgEarthNet.uav[31] simulationTime 259200
scalar OsgEarthNet.uav[32] utilizationSecMission 28504.161013123
scalar OsgEarthNet.uav[32] utilizationSecMaintenance 18465.390472142
scalar OsgEarthNet.uav[32] utilizationSecCharge 171035.94957356
scalar OsgEarthNet.uav[32] utilizationSecIdle 41194.497941176
scalar OsgEarthNet.uav[32] utilizationEnergyMission 132470.02254486
scalar OsgEarthNet.uav[32] utilizationEnergyMaintenance 85611.924640656
scalar OsgEarthNet.uav[32] utilizationEnergyCharge 214523.84960938
scalar OsgEarthNet.uav[32] utilizationEnergyOverdrawMission 0
scalar OsgEarthNet.uav[32] utilizationEnergyOverdrawMaintenance 0
scalar OsgEarthNet.uav[32] utilizationCountMissions 48
scalar OsgEarthNet.uav[32] utilizationCountManeuversMission 470
scalar OsgEarthNet.uav[32] utilizationCountManeuversMaintenance 96
scalar OsgEarthNet.uav[32] utilizationCountChargeState 48
scalar OsgEarthNet.uav[32] utilizationCountOverdrawnAfterMission 0
scalar OsgEarthNet.uav[32] utilizationCountIdleState 48
scalar OsgEarthNet.uav[32] utilizationFail 0
scalar OsgEarthNet.uav[32] simulationTime 259200
scalar OsgEarthNet.uav[33] utilizationSecMission 27730.495871995
scalar OsgEarthNet.uav[33] utilizationSecMaintenance 16404.85870008
scalar OsgEarthNet.uav[33] utilizationSecCharge 163440
scalar OsgEarthNet.uav[33] utilizationSecIdle 51624.644427925
scalar OsgEarthNet.uav[33] utilizationEnergyMission 128269.63380432
scalar OsgEarthNet.uav[33] utilizationEnergyMaintenance 76094.799052796
scalar OsgEarthNet.uav[33] utilizationEnergyCharge 204781.21899414
scalar OsgEarthNet.uav[33] utilizationEnergyOverdrawMission 0
scalar OsgEarthNet.uav[33] utilizationEnergyOverdrawMaintenance 0
scalar OsgEarthNet.uav[33] utilizationCountMissions 45
scalar OsgEarthNet.uav[33] utilizationCountManeuversMission 449
scalar OsgEarthNet.uav[33] utilizationCountManeuversMaintenance 91
scalar OsgEarthNet.uav[33] utilizationCountChargeState 45
scalar OsgEarthNet.uav[33] utilizationCountOverdrawnAfterMission 0
scalar OsgEarthNet.uav[33] utilizationCountIdleState 46
scalar OsgEarthNet.uav[33] utilizationFail 0
scalar OsgEarthNet.uav[33] simulationTime 259200
scalar OsgEarthNet.uav[34] utilizationSecMission 655.55330183502
scalar OsgEarthNet.uav[34] utilizationSecMaintenance 334.5505930207
scalar OsgEarthNet.uav[34] utilizationSecCharge 3710
scalar OsgEarthNet.uav[34] utilizationSecIdle 254499.89510514
scalar OsgEarthNet.uav[34] utilizationEnergyMission 2997.5437393188
scalar OsgEarthNet.uav[34] utilizationEnergyMaintenance 1725.8359489441
scalar OsgEarthNet.uav[34] utilizationEnergyCharge 4723.3764648438
scalar OsgEarthNet.uav[34] utilizationEnergyOverdrawMission 0
scalar OsgEarthNet.uav[34] utilizationEnergyOverdrawMaintenance 0
scalar OsgEarthNet.uav[34] utilizationCountMissions 1
scalar OsgEarthNet.uav[34] utilizationCountManeuversMission 10
scalar OsgEarthNet.uav[34] utilizationCountManeuversMaintenance 2
scalar OsgEarthNet.uav[34] utilizationCountChargeState 1
scalar OsgEarthNet.uav[34] utilizationCountOverdrawnAfterMission 0
scalar OsgEarthNet.uav[34] utilizationCountIdleState 2
scalar OsgEarthNet.uav[34] utilizationFail 0
scalar OsgEarthNet.uav[34] simulationTime 259200
scalar OsgEarthNet.uav[35] utilizationSecMission 25746.201724097
scalar OsgEarthNet.uav[35] utilizationSecMaintenance 19102.12422652
scalar OsgEarthNet.uav[35] utilizationSecCharge 163440
scalar OsgEarthNet.uav[35] utilizationSecIdle 50911.673049383
scalar OsgEarthNet.uav[35] utilizationEnergyMission 119424.10531245
scalar OsgEarthNet.uav[35] utilizationEnergyMaintenance 88677.55953598
scalar OsgEarthNet.uav[35] utilizationEnergyCharge 204774.921875
scalar OsgEarthNet.uav[35] utilizationEnergyOverdrawMission 0
scalar OsgEarthNet.uav[35] utilizationEnergyOverdrawMaintenance 0
scalar OsgEarthNet.uav[35] utilizationCountMissions 45
scalar OsgEarthNet.uav[35] utilizationCountManeuversMission 417
scalar OsgEarthNet.uav[35] utilizationCountManeuversMaintenance 91
scalar OsgEarthNet.uav[35] utilizationCountChargeState 45
scalar OsgEarthNet.uav[35] utilizationCountOverdrawnAfterMission 0
scalar OsgEarthNet.uav[35] utilizationCountIdleState 46
scalar OsgEarthNet.uav[35] utilizationFail 0
scalar OsgEarthNet.uav[35] simulationTime 259200
scalar OsgEarthNet.uav[36] utilizationSecMission 27461.668077508
scalar OsgEarthNet.uav[36] utilizationSecMaintenance 19350.986136706
scalar OsgEarthNet.uav[36] utilizationSecCharge 170494.57881444
scalar OsgEarthNet.uav[36] utilizationSecIdle 41892.765971341
scalar OsgEarthNet.uav[36] utilizationEnergyMission 126769.13871765
scalar OsgEarthNet.uav[36] utilizationEnergyMaintenance 90068.742618561
scalar OsgEarthNet.uav[36] utilizationEnergyCharge 213667.39282227
scalar OsgEarthNet.uav[36] utilizationEnergyOverdrawMission 0
scalar OsgEarthNet.uav[36] utilizationEnergyOverdrawMaintenance 0
scalar OsgEarthNet.uav[36] utilizationCountMissions 48
scalar OsgEarthNet.uav[36] utilizationCountManeuversMission 434
scalar OsgEarthNet.uav[36] utilizationCountManeuversMaintenance 96
scalar OsgEarthNet.uav[36] utilizationCountChargeState 48
scalar OsgEarthNet.uav[36] utilizationCountOverdrawnAfterMission 0
scalar OsgEarthNet.uav[36] utilizationCountIdleState 48
scalar OsgEarthNet.uav[36] utilizationFail 0
scalar OsgEarthNet.uav[36] simulationTime 259200
scalar OsgEarthNet.uav[37] utilizationSecMission 4062.7448408419
scalar OsgEarthNet.uav[37] utilizationSecMaintenance 3601.8294828491
scalar OsgEarthNet.uav[37] utilizationSecCharge 25740
scalar OsgEarthNet.uav[37] utilizationSecIdle 225795.42467631
scalar OsgEarthNet.uav[37] utilizationEnergyMission 19052.167266846
scalar OsgEarthNet.uav[37] utilizationEnergyMaintenance 17008.339850435
scalar OsgEarthNet.uav[37] utilizationEnergyCharge 32359.017089844
scalar OsgEarthNet.uav[37] utilizationEnergyOverdrawMission 0
scalar OsgEarthNet.uav[37] utilizationEnergyOverdrawMaintenance 0
scalar OsgEarthNet.uav[37] utilizationCountMissions 8
scalar OsgEarthNet.uav[37] utilizationCountManeuversMission 72
scalar OsgEarthNet.uav[37] utilizationCountManeuversMaintenance 16
scalar OsgEarthNet.uav[37] utilizationCountChargeState 7
scalar OsgEarthNet.uav[37] utilizationCountOverdrawnAfterMission 0
scalar OsgEarthNet.uav[37] utilizationCountIdleState 8
scalar OsgEarthNet.uav[37] utilizationFail 0
scalar OsgEarthNet.uav[37] simulationTime 259200
scalar OsgEarthNet.uav[38] utilizationSecMission 11876.995803373
scalar OsgEarthNet.uav[38] utilizationSecMaintenance 6153.7867993703
scalar OsgEarthNet.uav[38] utilizationSecCharge 65873.467706758
scalar OsgEarthNet.uav[38] utilizationSecIdle 175295.7486905
scalar OsgEarthNet.uav[38] utilizationEnergyMission 54834.304092407
scalar OsgEarthNet.uav[38] utilizationEnergyMaintenance 28542.482807159
scalar OsgEarthNet.uav[38] utilizationEnergyCharge 82995.12890625
scalar OsgEarthNet.uav[38] utilizationEnergyOverdrawMission 0
scalar OsgEarthNet.uav[38] utilizationEnergyOverdrawMaintenance 0
scalar OsgEarthNet.uav[38] utilizationCountMissions 18
scalar OsgEarthNet.uav[38] utilizationCountManeuversMission 194
scalar OsgEarthNet.uav[38] utilizationCountManeuversMaintenance 36
scalar OsgEarthNet.uav[38] utilizationCountChargeState 18
scalar OsgEarthNet.uav[38] utilizationCountOverdrawnAfterMission 0
scalar OsgEarthNet.uav[38] utilizationCountIdleState 18
scalar OsgEarthNet.uav[38] utilizationFail 0
scalar OsgEarthNet.uav[38] simulationTime 259200
scalar OsgEarthNet.uav[39] utilizationSecMission 19318.187502107
scalar OsgEarthNet.uav[39] utilizationSecMaintenance 12816.903490517
scalar OsgEarthNet.uav[39] utilizationSecCharge 114996.50666628
scalar OsgEarthNet.uav[39] utilizationSecIdle 112068.40134109
scalar OsgEarthNet.uav[39] utilizationEnergyMission 88777.134521484
scalar OsgEarthNet.uav[39] utilizationEnergyMaintenance 58773.509952545
scalar OsgEarthNet.uav[39] utilizationEnergyCharge 145390.3848877
scalar OsgEarthNet.uav[39] utilizationEnergyOverdrawMission 0
scalar OsgEarthNet.uav[39] utilizationEnergyOverdrawMaintenance 0
scalar OsgEarthNet.uav[39] utilizationCountMissions 32
scalar OsgEarthNet.uav[39] utilizationCountManeuversMission 304
scalar OsgEarthNet.uav[39] utilizationCountManeuversMaintenance 64
scalar OsgEarthNet.uav[39] utilizationCountChargeState 32
scalar OsgEarthNet.uav[39] utilizationCountOverdrawnAfterMission 0
scalar OsgEarthNet.uav[39] utilizationCountIdleState 32
scalar OsgEarthNet.uav[39] utilizationFail 0
scalar OsgEarthNet.uav[39] simulationTime 259200
scalar OsgEarthNet.uav[40] utilizationSecMission 30315.673530266
scalar OsgEarthNet.uav[40] utilizationSecMaintenance 16907.750065914
scalar OsgEarthNet.uav[40] utilizationSecCharge 172490
scalar OsgEarthNet.uav[40] utilizationSecIdle 39486.575403819
scalar OsgEarthNet.uav[40] utilizationEnergyMission 140063.89040885
scalar OsgEarthNet.uav[40] utilizationEnergyMaintenance 80297.45135498
scalar OsgEarthNet.uav[40] utilizationEnergyCharge 217246.32958984
scalar OsgEarthNet.uav[40] utilizationEnergyOverdrawMission 0
scalar OsgEarthNet.uav[40] utilizationEnergyOverdrawMaintenance 0
scalar OsgEarthNet.uav[40] utilizationCountMissions 47
scalar OsgEarthNet.uav[40] utilizationCountManeuversMission 488
scalar OsgEarthNet.uav[40] utilizationCountManeuversMaintenance 95
scalar OsgEarthNet.uav[40] utilizationCountChargeState 47
scalar OsgEarthNet.uav[40] utilizationCountOverdrawnAfterMission 0
scalar OsgEarthNet.uav[40] utilizationCountIdleState 48
scalar OsgEarthNet.uav[40] utilizationFail 0
scalar OsgEarthNet.uav[40] simulationTime 259200
scalar OsgEarthNet.uav[41] utilizationSecMission 28835.770557124
scalar OsgEarthNet.uav[41] utilizationSecMaintenance 18594.543928547
scalar OsgEarthNet.uav[41] utilizationSecCharge 175021.33190707
scalar OsgEarthNet.uav[41] utilizationSecIdle 36748.352607263
scalar OsgEarthNet.uav[41] utilizationEnergyMission 134543.73339844
scalar OsgEarthNet.uav[41] utilizationEnergyMaintenance 86980.960945129
scalar OsgEarthNet.uav[41] utilizationEnergyCharge 221419.89208984
scalar OsgEarthNet.uav[41] utilizationEnergyOverdrawMission 0
scalar OsgEarthNet.uav[41] utilizationEnergyOverdrawMaintenance 0
scalar OsgEarthNet.uav[41] utilizationCountMissions 48
scalar OsgEarthNet.uav[41] utilizationCountManeuversMission 467
scalar OsgEarthNet.uav[41] utilizationCountManeuversMaintenance 96
scalar OsgEarthNet.uav[41] utilizationCountChargeState 48
scalar OsgEarthNet.uav[41] utilizationCountOverdrawnAfterMission 0
scalar OsgEarthNet.uav[41] utilizationCountIdleState 48
scalar OsgEarthNet.uav[41] utilizationFail 0
scalar OsgEarthNet.uav[41] simulationTime 259200
scalar OsgEarthNet.uav[42] utilizationSecMission 21276.650745718
scalar OsgEarthNet.uav[42] utilizationSecMaintenance 15719.370371368
scalar OsgEarthNet.uav[42] utilizationSecCharge 137860
scalar OsgEarthNet.uav[42] utilizationSecIdle 84343.977882914
scalar OsgEarthNet.uav[42] utilizationEnergyMission 97793.508995056
scalar OsgEarthNet.uav[42] utilizationEnergyMaintenance 73269.295249939
scalar OsgEarthNet.uav[42] utilizationEnergyCharge 170688.63549805
scalar OsgEarthNet.uav[42] utilizationEnergyOverdrawMission 0
scalar OsgEarthNet.uav[42] utilizationEnergyOverdrawMaintenance 0
scalar OsgEarthNet.uav[42] utilizationCountMissions 39
scalar OsgEarthNet.uav[42] utilizationCountManeuversMission 353
scalar OsgEarthNet.uav[42] utilizationCountManeuversMaintenance 78
scalar OsgEarthNet.uav[42] utilizationCountChargeState 39
scalar OsgEarthNet.uav[42] utilizationCountOverdrawnAfterMission 0
scalar OsgEarthNet.uav[42] utilizationCountIdleState 40
scalar OsgEarthNet.uav[42] utilizationFail 0
scalar OsgEarthNet.uav[42] simulationTime 259200
scalar OsgEarthNet.uav[43] utilizationSecMission 22844.995793739
scalar OsgEarthNet.uav[43] utilizationSecMaintenance 17437.599211951
scalar OsgEarthNet.uav[43] utilizationSecCharge 147760.25495761
scalar OsgEarthNet.uav[43] utilizationSecIdle 71157.149036703
scalar OsgEarthNet.uav[43] utilizationEnergyMission 105311.47510529
scalar OsgEarthNet.uav[43] utilizationEnergyMaintenance 80263.009407043
scalar OsgEarthNet.uav[43] utilizationEnergyCharge 185526.53540039
scalar OsgEarthNet.uav[43] utilizationEnergyOverdrawMission 0
scalar OsgEarthNet.uav[43] utilizationEnergyOverdrawMaintenance 0
scalar OsgEarthNet.uav[43] utilizationCountMissions 41
scalar OsgEarthNet.uav[43] utilizationCountManeuversMission 381
scalar OsgEarthNet.uav[43] utilizationCountManeuversMaintenance 82
scalar OsgEarthNet.uav[43] utilizationCountChargeState 41
scalar OsgEarthNet.uav[43] utilizationCountOverdrawnAfterMission 0
scalar OsgEarthNet.uav[43] utilizationCountIdleState 41
scalar OsgEarthNet.uav[43] utilizationFail 0
scalar OsgEarthNet.uav[43] simulationTime 259200
scalar OsgEarthNet.uav[44] utilizationSecMission 14653.843071074
scalar OsgEarthNet.uav[44] utilizationSecMaintenance 10783.585043337
scalar OsgEarthNet.uav[44] utilizationSecCharge 92616.108688232
scalar OsgEarthNet.uav[44] utilizationSecIdle 141146.46219736
scalar OsgEarthNet.uav[44] utilizationEnergyMission 67874.650489807
scalar OsgEarthNet.uav[44] utilizationEnergyMaintenance 49610.843547821
scalar OsgEarthNet.uav[44] utilizationEnergyCharge 116756.28955078
scalar OsgEarthNet.uav[44] utilizationEnergyOverdrawMission 0
scalar OsgEarthNet.uav[44] utilizationEnergyOverdrawMaintenance 0
scalar OsgEarthNet.uav[44] utilizationCountMissions 26
scalar OsgEarthNet.uav[44] utilizationCountManeuversMission 254
scalar OsgEarthNet.uav[44] utilizationCountManeuversMaintenance 52
scalar OsgEarthNet.uav[44] utilizationCountChargeState 26
scalar OsgEarthNet.uav[44] utilizationCountOverdrawnAfterMission 0
scalar OsgEarthNet.uav[44] utilizationCountIdleState 26
scalar OsgEarthNet.uav[44] utilizationFail 0
scalar OsgEarthNet.uav[44] simulationTime 259200
scalar OsgEarthNet.uav[45] utilizationSecMission 29677.043586341
scalar OsgEarthNet.uav[45] utilizationSecMaintenance 18230.245487317
scalar OsgEarthNet.uav[45] utilizationSecCharge 177240.70992634
scalar OsgEarthNet.uav[45] utilizationSecIdle 34052
scalar OsgEarthNet.uav[45] utilizationEnergyMission 137278.71656518
scalar OsgEarthNet.uav[45] utilizationEnergyMaintenance 85697.791793823
scalar OsgEarthNet.uav[45] utilizationEnergyCharge 222545.32104492
scalar OsgEarthNet.uav[45] utilizationEnergyOverdrawMission 0
scalar OsgEarthNet.uav[45] utilizationEnergyOverdrawMaintenance 0
scalar OsgEarthNet.uav[45] utilizationCountMissions 49
scalar OsgEarthNet.uav[45] utilizationCountManeuversMission 472
scalar OsgEarthNet.uav[45] utilizationCountManeuversMaintenance 97
scalar OsgEarthNet.uav[45] utilizationCountChargeState 49
scalar OsgEarthNet.uav[45] utilizationCountOverdrawnAfterMission 0
scalar OsgEarthNet.uav[45] utilizationCountIdleState 49
scalar OsgEarthNet.uav[45] utilizationFail 0
scalar OsgEarthNet.uav[45] simulationTime 259200
scalar OsgEarthNet.uav[46] utilizationSecMission 26975.38167463
scalar OsgEarthNet.uav[46] utilizationSecMaintenance 15368.289354256
scalar OsgEarthNet.uav[46] utilizationSecCharge 156440.4312388
scalar OsgEarthNet.uav[46] utilizationSecIdle 60415.896732314
scalar OsgEarthNet.uav[46] utilizationEnergyMission 124336.69787598
scalar OsgEarthNet.uav[46] utilizationEnergyMaintenance 72434.837486267
scalar OsgEarthNet.uav[46] utilizationEnergyCharge 196915.22558594
scalar OsgEarthNet.uav[46] utilizationEnergyOverdrawMission 0
scalar OsgEarthNet.uav[46] utilizationEnergyOverdrawMaintenance 0
scalar OsgEarthNet.uav[46] utilizationCountMissions 43
scalar OsgEarthNet.uav[46] utilizationCountManeuversMission 434
scalar OsgEarthNet.uav[46] utilizationCountManeuversMaintenance 86
scalar OsgEarthNet.uav[46] utilizationCountChargeState 43
scalar OsgEarthNet.uav[46] utilizationCountOverdrawnAfterMission 0
scalar OsgEarthNet.uav[46] utilizationCountIdleState 43
scalar OsgEarthNet.uav[46] utilizationFail 0
scalar OsgEarthNet.uav[46] simulationTime 259200
scalar OsgEarthNet.uav[47] utilizationSecMission 23334.727028352
scalar OsgEarthNet.uav[47] utilizationSecMaintenance 17688.827929058
scalar OsgEarthNet.uav[47] utilizationSecCharge 150662.68504193
scalar OsgEarthNet.uav[47] utilizationSecIdle 67513.75900066
scalar OsgEarthNet.uav[47] utilizationEnergyMission 108074.87643433
scalar OsgEarthNet.uav[47] utilizationEnergyMaintenance 82705.954029083
scalar OsgEarthNet.uav[47] utilizationEnergyCharge 189754.47460938
scalar OsgEarthNet.uav[47] utilizationEnergyOverdrawMission 0
scalar OsgEarthNet.uav[47] utilizationEnergyOverdrawMaintenance 0
scalar OsgEarthNet.uav[47] utilizationCountMissions 42
scalar OsgEarthNet.uav[47] utilizationCountManeuversMission 383
scalar OsgEarthNet.uav[47] utilizationCountManeuversMaintenance 84
scalar OsgEarthNet.uav[47] utilizationCountChargeState 42
scalar OsgEarthNet.uav[47] utilizationCountOverdrawnAfterMission 0
scalar OsgEarthNet.uav[47] utilizationCountIdleState 42
scalar OsgEarthNet.uav[47] utilizationFail 0
scalar OsgEarthNet.uav[47] simulationTime 259200
scalar OsgEarthNet.uav[48] utilizationSecMission 25053.615048316
scalar OsgEarthNet.uav[48] utilizationSecMaintenance 16659.600946131
scalar OsgEarthNet.uav[48] utilizationSecCharge 153510
scalar OsgEarthNet.uav[48] utilizationSecIdle 63976.783005553
scalar OsgEarthNet.uav[48] utilizationEnergyMission 116305.29504395
scalar OsgEarthNet.uav[48] utilizationEnergyMaintenance 77145.958847046
scalar OsgEarthNet.uav[48] utilizationEnergyCharge 192766.73999023
scalar OsgEarthNet.uav[48] utilizationEnergyOverdrawMission 0
scalar OsgEarthNet.uav[48] utilizationEnergyOverdrawMaintenance 0
scalar OsgEarthNet.uav[48] utilizationCountMissions 42
scalar OsgEarthNet.uav[48] utilizationCountManeuversMission 419
scalar OsgEarthNet.uav[48] utilizationCountManeuversMaintenance 84
scalar OsgEarthNet.uav[48] utilizationCountChargeState 42
scalar OsgEarthNet.uav[48] utilizationCountOverdrawnAfterMission 0
scalar OsgEarthNet.uav[48] utilizationCountIdleState 43
scalar OsgEarthNet.uav[48] utilizationFail 0
scalar OsgEarthNet.uav[48] simulationTime 259200
scalar OsgEarthNet.uav[49] utilizationSecMission 2785.7584274672
scalar OsgEarthNet.uav[49] utilizationSecMaintenance 2082.422636482
scalar OsgEarthNet.uav[49] utilizationSecCharge 18180
scalar OsgEarthNet.uav[49] utilizationSecIdle 236151.81793605
scalar OsgEarthNet.uav[49] utilizationEnergyMission 13138.786682129
scalar OsgEarthNet.uav[49] utilizationEnergyMaintenance 9791.3269386291
scalar OsgEarthNet.uav[49] utilizationEnergyCharge 22930.114746094
scalar OsgEarthNet.uav[49] utilizationEnergyOverdrawMission 0
scalar OsgEarthNet.uav[49] utilizationEnergyOverdrawMaintenance 0
scalar OsgEarthNet.uav[49] utilizationCountMissions 5
scalar OsgEarthNet.uav[49] utilizationCountManeuversMission 47
scalar OsgEarthNet.uav[49] utilizationCountManeuversMaintenance 10
scalar OsgEarthNet.uav[49] utilizationCountChargeState 5
scalar OsgEarthNet.uav[49] utilizationCountOverdrawnAfterMission 0
scalar OsgEarthNet.uav[49] utilizationCountIdleState 6
scalar OsgEarthNet.uav[49] utilizationFail 0
scalar OsgEarthNet.uav[49] simulationTime 259200
scalar OsgEarthNet.uav[50] utilizationSecMission 23646.795646506
scalar OsgEarthNet.uav[50] utilizationSecMaintenance 15767.318138219
scalar OsgEarthNet.uav[50] utilizationSecCharge 142058.11002638
scalar OsgEarthNet.uav[50] utilizationSecIdle 77727.775188898
scalar OsgEarthNet.uav[50] utilizationEnergyMission 108211.34442902
scalar OsgEarthNet.uav[50] utilizationEnergyMaintenance 72148.282684326
scalar OsgEarthNet.uav[50] utilizationEnergyCharge 180010.8671875
scalar OsgEarthNet.uav[50] utilizationEnergyOverdrawMission 0
scalar OsgEarthNet.uav[50] utilizationEnergyOverdrawMaintenance 0
scalar OsgEarthNet.uav[50] utilizationCountMissions 39
scalar OsgEarthNet.uav[50] utilizationCountManeuversMission 386
scalar OsgEarthNet.uav[50] utilizationCountManeuversMaintenance 78
scalar OsgEarthNet.uav[50] utilizationCountChargeState 39
scalar OsgEarthNet.uav[50] utilizationCountOverdrawnAfterMission 0
scalar OsgEarthNet.uav[50] utilizationCountIdleState 39
scalar OsgEarthNet.uav[50] utilizationFail 0
scalar OsgEarthNet.uav[50] simulationTime 259200
scalar OsgEarthNet.uav[51] utilizationSecMission 25231.148203097
scalar OsgEarthNet.uav[51] utilizationSecMaintenance 15639.183780416
scalar OsgEarthNet.uav[51] utilizationSecCharge 150520
scalar OsgEarthNet.uav[51] utilizationSecIdle 67809.667016487
scalar OsgEarthNet.uav[51] utilizationEnergyMission 116446.27236176
scalar OsgEarthNet.uav[51] utilizationEnergyMaintenance 73297.295841217
scalar OsgEarthNet.uav[51] utilizationEnergyCharge 189321.55444336
scalar OsgEarthNet.uav[51] utilizationEnergyOverdrawMission 0
scalar OsgEarthNet.uav[51] utilizationEnergyOverdrawMaintenance 0
scalar OsgEarthNet.uav[51] utilizationCountMissions 41
scalar OsgEarthNet.uav[51] utilizationCountManeuversMission 420
scalar OsgEarthNet.uav[51] utilizationCountManeuversMaintenance 82
scalar OsgEarthNet.uav[51] utilizationCountChargeState 41
scalar OsgEarthNet.uav[51] utilizationCountOverdrawnAfterMission 0
scalar OsgEarthNet.uav[51] utilizationCountIdleState 42
scalar OsgEarthNet.uav[51] utilizationFail 0
scalar OsgEarthNet.uav[51] simulationTime 259200
scalar OsgEarthNet.uav[52] utilizationSecMission 18200.727764513
scalar OsgEarthNet.uav[52] utilizationSecMaintenance 12043.800152889
scalar OsgEarthNet.uav[52] utilizationSecCharge 111280
scalar OsgEarthNet.uav[52] utilizationSecIdle 117675.4710826
scalar OsgEarthNet.uav[52] utilizationEnergyMission 83984.544059753
scalar OsgEarthNet.uav[52] utilizationEnergyMaintenance 55446.075458527
scalar OsgEarthNet.uav[52] utilizationEnergyCharge 139142.36645508
scalar OsgEarthNet.uav[52] utilizationEnergyOverdrawMission 0
scalar OsgEarthNet.uav[52] utilizationEnergyOverdrawMaintenance 0
scalar OsgEarthNet.uav[52] utilizationCountMissions 31
scalar OsgEarthNet.uav[52] utilizationCountManeuversMission 294
scalar OsgEarthNet.uav[52] utilizationCountManeuversMaintenance 62
scalar OsgEarthNet.uav[52] utilizationCountChargeState 31
scalar OsgEarthNet.uav[52] utilizationCountOverdrawnAfterMission 0
scalar OsgEarthNet.uav[52] utilizationCountIdleState 31
scalar OsgEarthNet.uav[52] utilizationFail 0
scalar OsgEarthNet.uav[52] simulationTime 259200
scalar OsgEarthNet.uav[53] utilizationSecMission 29150.65929723
scalar OsgEarthNet.uav[53] utilizationSecMaintenance 18058.248759615
scalar OsgEarthNet.uav[53] utilizationSecCharge 173828.46478237
scalar OsgEarthNet.uav[53] utilizationSecIdle 38162.626160789
scalar OsgEarthNet.uav[53] utilizationEnergyMission 134815.78066254
scalar OsgEarthNet.uav[53] utilizationEnergyMaintenance 83245.67791748
scalar OsgEarthNet.uav[53] utilizationEnergyCharge 218272.09960938
scalar OsgEarthNet.uav[53] utilizationEnergyOverdrawMission 0
scalar OsgEarthNet.uav[53] utilizationEnergyOverdrawMaintenance 0
scalar OsgEarthNet.uav[53] utilizationCountMissions 48
scalar OsgEarthNet.uav[53] utilizationCountManeuversMission 461
scalar OsgEarthNet.uav[53] utilizationCountManeuversMaintenance 96
scalar OsgEarthNet.uav[53] utilizationCountChargeState 48
scalar OsgEarthNet.uav[53] utilizationCountOverdrawnAfterMission 0
scalar OsgEarthNet.uav[53] utilizationCountIdleState 46
scalar OsgEarthNet.uav[53] utilizationFail 0
scalar OsgEarthNet.uav[53] simulationTime 259200
scalar OsgEarthNet.uav[54] utilizationSecMission 13770.325320776
scalar OsgEarthNet.uav[54] utilizationSecMaintenance 11125.149361979
scalar OsgEarthNet.uav[54] utilizationSecCharge 91200
scalar OsgEarthNet.uav[54] utilizationSecIdle 143104.52431724
scalar OsgEarthNet.uav[54] utilizationEnergyMission 63288.871307373
scalar OsgEarthNet.uav[54] utilizationEnergyMaintenance 51836.627281189
scalar OsgEarthNet.uav[54] utilizationEnergyCharge 115135.00439453
scalar OsgEarthNet.uav[54] utilizationEnergyOverdrawMission 0
scalar OsgEarthNet.uav[54] utilizationEnergyOverdrawMaintenance 0
scalar OsgEarthNet.uav[54] utilizationCountMissions 25
scalar OsgEarthNet.uav[54] utilizationCountManeuversMission 226
scalar OsgEarthNet.uav[54] utilizationCountManeuversMaintenance 50
scalar OsgEarthNet.uav[54] utilizationCountChargeState 25
scalar OsgEarthNet.uav[54] utilizationCountOverdrawnAfterMission 0
scalar OsgEarthNet.uav[54] utilizationCountIdleState 23
scalar OsgEarthNet.uav[54] utilizationFail 0
scalar OsgEarthNet.uav[54] simulationTime 259200
scalar OsgEarthNet.uav[55] utilizationSecMission 29056.031822223
scalar OsgEarthNet.uav[55] utilizationSecMaintenance 19178.805757427
scalar OsgEarthNet.uav[55] utilizationSecCharge 175447.71115632
scalar OsgEarthNet.uav[55] utilizationSecIdle 35517.450264031
scalar OsgEarthNet.uav[55] utilizationEnergyMission 133193.54563141
scalar OsgEarthNet.uav[55] utilizationEnergyMaintenance 88824.0157547
scalar OsgEarthNet.uav[55] utilizationEnergyCharge 220413.81811523
scalar OsgEarthNet.uav[55] utilizationEnergyOverdrawMission 0
scalar OsgEarthNet.uav[55] utilizationEnergyOverdrawMaintenance 0
scalar OsgEarthNet.uav[55] utilizationCountMissions 49
scalar OsgEarthNet.uav[55] utilizationCountManeuversMission 479
scalar OsgEarthNet.uav[55] utilizationCountManeuversMaintenance 98
scalar OsgEarthNet.uav[55] utilizationCountChargeState 49
scalar OsgEarthNet.uav[55] utilizationCountOverdrawnAfterMission 0
scalar OsgEarthNet.uav[55] utilizationCountIdleState 49
scalar OsgEarthNet.uav[55] utilizationFail 0
scalar OsgEarthNet.uav[55] simulationTime 259200
scalar OsgEarthNet.uav[56] utilizationSecMission 21528.669042453
scalar OsgEarthNet.uav[56] utilizationSecMaintenance 14801.607798629
scalar OsgEarthNet.uav[56] utilizationSecCharge 133820
scalar OsgEarthNet.uav[56] utilizationSecIdle 89049.722158918
scalar OsgEarthNet.uav[56] utilizationEnergyMission 100186.47200012
scalar OsgEarthNet.uav[56] utilizationEnergyMaintenance 67836.653007507
scalar OsgEarthNet.uav[56] utilizationEnergyCharge 168087.41601562
scalar OsgEarthNet.uav[56] utilizationEnergyOverdrawMission 0
scalar OsgEarthNet.uav[56] utilizationEnergyOverdrawMaintenance 0
scalar OsgEarthNet.uav[56] utilizationCountMissions 37
scalar OsgEarthNet.uav[56] utilizationCountManeuversMission 354
scalar OsgEarthNet.uav[56] utilizationCountManeuversMaintenance 74
scalar OsgEarthNet.uav[56] utilizationCountChargeState 37
scalar OsgEarthNet.uav[56] utilizationCountOverdrawnAfterMission 0
scalar OsgEarthNet.uav[56] utilizationCountIdleState 37
scalar OsgEarthNet.uav[56] utilizationFail 0
scalar OsgEarthNet.uav[56] simulationTime 259200
scalar OsgEarthNet.uav[57] utilizationSecMission 25575.485513654
scalar OsgEarthNet.uav[57] utilizationSecMaintenance 17482.892641659
scalar OsgEarthNet.uav[57] utilizationSecCharge 159200
scalar OsgEarthNet.uav[57] utilizationSecIdle 56941.620844687
scalar OsgEarthNet.uav[57] utilizationEnergyMission 118222.50258636
scalar OsgEarthNet.uav[57] utilizationEnergyMaintenance 81385.965576172
scalar OsgEarthNet.uav[57] utilizationEnergyCharge 199807.83154297
scalar OsgEarthNet.uav[57] utilizationEnergyOverdrawMission 0
scalar OsgEarthNet.uav[57] utilizationEnergyOverdrawMaintenance 0
scalar OsgEarthNet.uav[57] utilizationCountMissions 44
scalar OsgEarthNet.uav[57] utilizationCountManeuversMission 415
scalar OsgEarthNet.uav[57] utilizationCountManeuversMaintenance 88
scalar OsgEarthNet.uav[57] utilizationCountChargeState 44
scalar OsgEarthNet.uav[57] utilizationCountOverdrawnAfterMission 0
scalar OsgEarthNet.uav[57] utilizationCountIdleState 42
scalar OsgEarthNet.uav[57] utilizationFail 0
scalar OsgEarthNet.uav[57] simulationTime 259200
scalar OsgEarthNet.uav[58] utilizationSecMission 25350.753414334
scalar OsgEarthNet.uav[58] utilizationSecMaintenance 16832.669944476
scalar OsgEarthNet.uav[58] utilizationSecCharge 154700
scalar OsgEarthNet.uav[58] utilizationSecIdle 62316.57564119
scalar OsgEarthNet.uav[58] utilizationEnergyMission 117709.31023407
scalar OsgEarthNet.uav[58] utilizationEnergyMaintenance 77614.951957703
scalar OsgEarthNet.uav[58] utilizationEnergyCharge 195437.07324219
scalar OsgEarthNet.uav[58] utilizationEnergyOverdrawMission 0
scalar OsgEarthNet.uav[58] utilizationEnergyOverdrawMaintenance 0
scalar OsgEarthNet.uav[58] utilizationCountMissions 42
scalar OsgEarthNet.uav[58] utilizationCountManeuversMission 409
scalar OsgEarthNet.uav[58] utilizationCountManeuversMaintenance 84
scalar OsgEarthNet.uav[58] utilizationCountChargeState 42
scalar OsgEarthNet.uav[58] utilizationCountOverdrawnAfterMission 0
scalar OsgEarthNet.uav[58] utilizationCountIdleState 41
scalar OsgEarthNet.uav[58] utilizationFail 0
scalar OsgEarthNet.uav[58] simulationTime 259200
scalar OsgEarthNet.uav[59] utilizationSecMission 27179.794789418
scalar OsgEarthNet.uav[59] utilizationSecMaintenance 17320.04359467
scalar OsgEarthNet.uav[59] utilizationSecCharge 159664.89003579
scalar OsgEarthNet.uav[59] utilizationSecIdle 55035.270580119
scalar OsgEarthNet.uav[59] utilizationEnergyMission 124244.21385956
scalar OsgEarthNet.uav[59] utilizationEnergyMaintenance 79979.943099976
scalar OsgEarthNet.uav[59] utilizationEnergyCharge 200221.284729
scalar OsgEarthNet.uav[59] utilizationEnergyOverdrawMission 0
scalar OsgEarthNet.uav[59] utilizationEnergyOverdrawMaintenance 0
scalar OsgEarthNet.uav[59] utilizationCountMissions 45
scalar OsgEarthNet.uav[59] utilizationCountManeuversMission 433
scalar OsgEarthNet.uav[59] utilizationCountManeuversMaintenance 90
scalar OsgEarthNet.uav[59] utilizationCountChargeState 45
scalar OsgEarthNet.uav[59] utilizationCountOverdrawnAfterMission 0
scalar OsgEarthNet.uav[59] utilizationCountIdleState 44
scalar OsgEarthNet.uav[59] utilizationFail 0
scalar OsgEarthNet.uav[59] simulationTime 259200
scalar OsgEarthNet.uav[60] utilizationSecMission 22927.257421111
scalar OsgEarthNet.uav[60] utilizationSecMaintenance 20154.496441755
scalar OsgEarthNet.uav[60] utilizationSecCharge 155259.21764385
scalar OsgEarthNet.uav[60] utilizationSecIdle 60859.027493287
scalar OsgEarthNet.uav[60] utilizationEnergyMission 105057.84566498
scalar OsgEarthNet.uav[60] utilizationEnergyMaintenance 92821.834774017
scalar OsgEarthNet.uav[60] utilizationEnergyCharge 194739.16772461
scalar OsgEarthNet.uav[60] utilizationEnergyOverdrawMission 0
scalar OsgEarthNet.uav[60] utilizationEnergyOverdrawMaintenance 0
scalar OsgEarthNet.uav[60] utilizationCountMissions 44
scalar OsgEarthNet.uav[60] utilizationCountManeuversMission 362
scalar OsgEarthNet.uav[60] utilizationCountManeuversMaintenance 88
scalar OsgEarthNet.uav[60] utilizationCountChargeState 44
scalar OsgEarthNet.uav[60] utilizationCountOverdrawnAfterMission 0
scalar OsgEarthNet.uav[60] utilizationCountIdleState 42
scalar OsgEarthNet.uav[60] utilizationFail 0
scalar OsgEarthNet.uav[60] simulationTime 259200
scalar OsgEarthNet.uav[61] utilizationSecMission 26820.259011282
scalar OsgEarthNet.uav[61] utilizationSecMaintenance 20677.381143792
scalar OsgEarthNet.uav[61] utilizationSecCharge 171799.63736532
scalar OsgEarthNet.uav[61] utilizationSecIdle 39902.721479611
scalar OsgEarthNet.uav[61] utilizationEnergyMission 125008.0929718
scalar OsgEarthNet.uav[61] utilizationEnergyMaintenance 95203.88117981
scalar OsgEarthNet.uav[61] utilizationEnergyCharge 216839.60021973
scalar OsgEarthNet.uav[61] utilizationEnergyOverdrawMission 0
scalar OsgEarthNet.uav[61] utilizationEnergyOverdrawMaintenance 0
scalar OsgEarthNet.uav[61] utilizationCountMissions 48
scalar OsgEarthNet.uav[61] utilizationCountManeuversMission 452
scalar OsgEarthNet.uav[61] utilizationCountManeuversMaintenance 96
scalar OsgEarthNet.uav[61] utilizationCountChargeState 48
scalar OsgEarthNet.uav[61] utilizationCountOverdrawnAfterMission 0
scalar OsgEarthNet.uav[61] utilizationCountIdleState 44
scalar OsgEarthNet.uav[61] utilizationFail 0
scalar OsgEarthNet.uav[61] simulationTime 259200
scalar OsgEarthNet.uav[62] utilizationSecMission 28444.493222097
scalar OsgEarthNet.uav[62] utilizationSecMaintenance 21190.726116719
scalar OsgEarthNet.uav[62] utilizationSecCharge 180953.32670247
scalar OsgEarthNet.uav[62] utilizationSecIdle 28611.452958717
scalar OsgEarthNet.uav[62] utilizationEnergyMission 132658.24374008
scalar OsgEarthNet.uav[62] utilizationEnergyMaintenance 99085.625278473
scalar OsgEarthNet.uav[62] utilizationEnergyCharge 229681.12670898
scalar OsgEarthNet.uav[62] utilizationEnergyOverdrawMission 0
scalar OsgEarthNet.uav[62] utilizationEnergyOverdrawMaintenance 0
scalar OsgEarthNet.uav[62] utilizationCountMissions 50
scalar OsgEarthNet.uav[62] utilizationCountManeuversMission 465
scalar OsgEarthNet.uav[62] utilizationCountManeuversMaintenance 100
scalar OsgEarthNet.uav[62] utilizationCountChargeState 50
scalar OsgEarthNet.uav[62] utilizationCountOverdrawnAfterMission 0
scalar OsgEarthNet.uav[62] utilizationCountIdleState 44
scalar OsgEarthNet.uav[62] utilizationFail 0
scalar OsgEarthNet.uav[62] simulationTime 259200
scalar OsgEarthNet.uav[63] utilizationSecMission 26740.524584291
scalar OsgEarthNet.uav[63] utilizationSecMaintenance 20260.650804887
scalar OsgEarthNet.uav[63] utilizationSecCharge 171492.30072631
scalar OsgEarthNet.uav[63] utilizationSecIdle 40706.522884509
scalar OsgEarthNet.uav[63] utilizationEnergyMission 123123.90760803
scalar OsgEarthNet.uav[63] utilizationEnergyMaintenance 94343.388214111
scalar OsgEarthNet.uav[63] utilizationEnergyCharge 215887.65234375
scalar OsgEarthNet.uav[63] utilizationEnergyOverdrawMission 0
scalar OsgEarthNet.uav[63] utilizationEnergyOverdrawMaintenance 223.06864929199
scalar OsgEarthNet.uav[63] utilizationCountMissions 48
scalar OsgEarthNet.uav[63] utilizationCountManeuversMission 426
scalar OsgEarthNet.uav[63] utilizationCountManeuversMaintenance 96
scalar OsgEarthNet.uav[63] utilizationCountChargeState 48
scalar OsgEarthNet.uav[63] utilizationCountOverdrawnAfterMission 1
scalar OsgEarthNet.uav[63] utilizationCountIdleState 43
scalar OsgEarthNet.uav[63] utilizationFail 0
scalar OsgEarthNet.uav[63] simulationTime 259200
scalar OsgEarthNet.uav[64] utilizationSecMission 27256.813600864
scalar OsgEarthNet.uav[64] utilizationSecMaintenance 22588.813472431
scalar OsgEarthNet.uav[64] utilizationSecCharge 182662.28472542
scalar OsgEarthNet.uav[64] utilizationSecIdle 26692.087201284
scalar OsgEarthNet.uav[64] utilizationEnergyMission 126564.88143158
scalar OsgEarthNet.uav[64] utilizationEnergyMaintenance 104324.01371002
scalar OsgEarthNet.uav[64] utilizationEnergyCharge 230582.37451172
scalar OsgEarthNet.uav[64] utilizationEnergyOverdrawMission 0
scalar OsgEarthNet.uav[64] utilizationEnergyOverdrawMaintenance 0
scalar OsgEarthNet.uav[64] utilizationCountMissions 51
scalar OsgEarthNet.uav[64] utilizationCountManeuversMission 456
scalar OsgEarthNet.uav[64] utilizationCountManeuversMaintenance 102
scalar OsgEarthNet.uav[64] utilizationCountChargeState 51
scalar OsgEarthNet.uav[64] utilizationCountOverdrawnAfterMission 0
scalar OsgEarthNet.uav[64] utilizationCountIdleState 41
scalar OsgEarthNet.uav[64] utilizationFail 0
scalar OsgEarthNet.uav[64] simulationTime 259200
scalar OsgEarthNet.uav[65] utilizationSecMission 29093.6975335
scalar OsgEarthNet.uav[65] utilizationSecMaintenance 20759.759354091
scalar OsgEarthNet.uav[65] utilizationSecCharge 183820
scalar OsgEarthNet.uav[65] utilizationSecIdle 25526.542112409
scalar OsgEarthNet.uav[65] utilizationEnergyMission 135227.84373474
scalar OsgEarthNet.uav[65] utilizationEnergyMaintenance 95985.058834076
scalar OsgEarthNet.uav[65] utilizationEnergyCharge 231073.96289062
scalar OsgEarthNet.uav[65] utilizationEnergyOverdrawMission 0
scalar OsgEarthNet.uav[65] utilizationEnergyOverdrawMaintenance 0
scalar OsgEarthNet.uav[65] utilizationCountMissions 51
scalar OsgEarthNet.uav[65] utilizationCountManeuversMission 476
scalar OsgEarthNet.uav[65] utilizationCountManeuversMaintenance 102
scalar OsgEarthNet.uav[65] utilizationCountChargeState 51
scalar OsgEarthNet.uav[65] utilizationCountOverdrawnAfterMission 0
scalar OsgEarthNet.uav[65] utilizationCountIdleState 46
scalar OsgEarthNet.uav[65] utilizationFail 0
scalar OsgEarthNet.uav[65] simulationTime 259200
scalar OsgEarthNet.uav[66] utilizationSecMission 31101.308006839
scalar OsgEarthNet.uav[66] utilizationSecMaintenance 20266.690993161
scalar OsgEarthNet.uav[66] utilizationSecCharge 186850
scalar OsgEarthNet.uav[66] utilizationSecIdle 20982
scalar OsgEarthNet.uav[66] utilizationEnergyMission 143127.99612901
scalar OsgEarthNet.uav[66] utilizationEnergyMaintenance 93513.191577911
scalar OsgEarthNet.uav[66] utilizationEnergyCharge 234870.40600586
scalar OsgEarthNet.uav[66] utilizationEnergyOverdrawMission 0
scalar OsgEarthNet.uav[66] utilizationEnergyOverdrawMaintenance 0
scalar OsgEarthNet.uav[66] utilizationCountMissions 52
scalar OsgEarthNet.uav[66] utilizationCountManeuversMission 499
scalar OsgEarthNet.uav[66] utilizationCountManeuversMaintenance 104
scalar OsgEarthNet.uav[66] utilizationCountChargeState 52
scalar OsgEarthNet.uav[66] utilizationCountOverdrawnAfterMission 0
scalar OsgEarthNet.uav[66] utilizationCountIdleState 46
scalar OsgEarthNet.uav[66] utilizationFail 0
scalar OsgEarthNet.uav[66] simulationTime 259200
scalar OsgEarthNet.uav[67] utilizationSecMission 28940.660552695
scalar OsgEarthNet.uav[67] utilizationSecMaintenance 22110.640530397
scalar OsgEarthNet.uav[67] utilizationSecCharge 185750.68459226
scalar OsgEarthNet.uav[67] utilizationSecIdle 22398.013324647
scalar OsgEarthNet.uav[67] utilizationEnergyMission 134187.43721771
scalar OsgEarthNet.uav[67] utilizationEnergyMaintenance 101783.55817413
scalar OsgEarthNet.uav[67] utilizationEnergyCharge 235442.05371094
scalar OsgEarthNet.uav[67] utilizationEnergyOverdrawMission 0
scalar OsgEarthNet.uav[67] utilizationEnergyOverdrawMaintenance 0
scalar OsgEarthNet.uav[67] utilizationCountMissions 52
scalar OsgEarthNet.uav[67] utilizationCountManeuversMission 473
scalar OsgEarthNet.uav[67] utilizationCountManeuversMaintenance 104
scalar OsgEarthNet.uav[67] utilizationCountChargeState 52
scalar OsgEarthNet.uav[67] utilizationCountOverdrawnAfterMission 0
scalar OsgEarthNet.uav[67] utilizationCountIdleState 40
scalar OsgEarthNet.uav[67] utilizationFail 0
scalar OsgEarthNet.uav[67] simulationTime 259200
scalar OsgEarthNet.uav[68] utilizationSecMission 28826.962977259
scalar OsgEarthNet.uav[68] utilizationSecMaintenance 23843.816408826
scalar OsgEarthNet.uav[68] utilizationSecCharge 190940
scalar OsgEarthNet.uav[68] utilizationSecIdle 15589.219613916
scalar OsgEarthNet.uav[68] utilizationEnergyMission 132073.63975607
scalar OsgEarthNet.uav[68] utilizationEnergyMaintenance 110574.23415756
scalar OsgEarthNet.uav[68] utilizationEnergyCharge 241305.01318359
scalar OsgEarthNet.uav[68] utilizationEnergyOverdrawMission 0
scalar OsgEarthNet.uav[68] utilizationEnergyOverdrawMaintenance 0
scalar OsgEarthNet.uav[68] utilizationCountMissions 53
scalar OsgEarthNet.uav[68] utilizationCountManeuversMission 457
scalar OsgEarthNet.uav[68] utilizationCountManeuversMaintenance 107
scalar OsgEarthNet.uav[68] utilizationCountChargeState 53
scalar OsgEarthNet.uav[68] utilizationCountOverdrawnAfterMission 0
scalar OsgEarthNet.uav[68] utilizationCountIdleState 38
scalar OsgEarthNet.uav[68] utilizationFail 0
scalar OsgEarthNet.uav[68] simulationTime 259200
scalar OsgEarthNet.uav[69] utilizationSecMission 29576.839370685
scalar OsgEarthNet.uav[69] utilizationSecMaintenance 22898.019944051
scalar OsgEarthNet.uav[69] utilizationSecCharge 190391.12140953
scalar OsgEarthNet.uav[69] utilizationSecIdle 16334.01827573
scalar OsgEarthNet.uav[69] utilizationEnergyMission 136876.34688568
scalar OsgEarthNet.uav[69] utilizationEnergyMaintenance 105241.37304688
scalar OsgEarthNet.uav[69] utilizationEnergyCharge 241771.56005859
scalar OsgEarthNet.uav[69] utilizationEnergyOverdrawMission 0
scalar OsgEarthNet.uav[69] utilizationEnergyOverdrawMaintenance 0
scalar OsgEarthNet.uav[69] utilizationCountMissions 53
scalar OsgEarthNet.uav[69] utilizationCountManeuversMission 487
scalar OsgEarthNet.uav[69] utilizationCountManeuversMaintenance 106
scalar OsgEarthNet.uav[69] utilizationCountChargeState 53
scalar OsgEarthNet.uav[69] utilizationCountOverdrawnAfterMission 0
scalar OsgEarthNet.uav[69] utilizationCountIdleState 37
scalar OsgEarthNet.uav[69] utilizationFail 0
scalar OsgEarthNet.uav[69] simulationTime 259200
scalar OsgEarthNet.cs[0] usedPower 2127984.2979095
scalar OsgEarthNet.cs[0] chargedPower 2127984.2979095
scalar OsgEarthNet.cs[0] chargedMobileNodes 437
scalar OsgEarthNet.cs[0] reservations 473
scalar OsgEarthNet.cs[1] usedPower 3031541.3131401
scalar OsgEarthNet.cs[1] chargedPower 3031541.3131401
scalar OsgEarthNet.cs[1] chargedMobileNodes 623
scalar OsgEarthNet.cs[1] reservations 656
scalar OsgEarthNet.cs[2] usedPower 4836567.5489422
scalar OsgEarthNet.cs[2] chargedPower 4836567.5489422
scalar OsgEarthNet.cs[2] chargedMobileNodes 1016
scalar OsgEarthNet.cs[2] reservations 1074

