version 2
run Szenario_Hotel_Gabelbach-73-20180710-03:35:19-5060
attr configname Szenario_Hotel_Gabelbach
attr datetime 20180710-03:35:19
attr experiment Szenario_Hotel_Gabelbach
attr inifile omnetpp.ini
attr iterationvars "$numUAVs=60, $replM=0"
attr iterationvarsf numUAVs=60,replM=0-
attr measurement "$numUAVs=60, $replM=0"
attr network OsgEarthNet
attr processid 5060
attr repetition 9
attr replication #9
attr resultdir results
attr runnumber 73
attr seedset 73
itervar numUAVs 60
itervar replM 0
param *.osgEarthScene.scene "\"Szenario_Hotel_Gabelbach.earth\""
param *.playgroundLatitude 50.6830269
param *.playgroundLongitude 10.8538055
param *.playgroundWidth 3500m
param *.playgroundHeight 3500m
param *.numCSs 3
param *.cs[0].posX 3537m
param *.cs[0].posY 965m
param *.cs[0].posZ 538m
param *.cs[1].posX 312m
param *.cs[1].posY 1262m
param *.cs[1].posZ 539m
param *.cs[2].posX 2185m
param *.cs[2].posY 3026m
param *.cs[2].posZ 777m
param *.cs[3].posX 10m
param *.cs[3].posY 2200m
param *.cs[3].posZ 560m
param *.cs[4].posX 750m
param *.cs[4].posY 200m
param *.cs[4].posZ 540m
param *.cs[5].posX 2450m
param *.cs[5].posY 180m
param *.cs[5].posZ 524m
param *.cs[6].posX 3140m
param *.cs[6].posY 1790m
param *.cs[6].posZ 606m
param *.numUAVs 60
param *.uav[*].replacementMethod 0
param *.*.timeStep 10s
param *.uav[*].commandPreviewCommandCount 20
param *.missionControl.missionFiles "\"missions\\\\Szenario_WB_Hotel_Gabelbach_Mission_Hotel.waypoints,missions\\\\Szenario_WB_Hotel_Gabelbach_Mission_Kickelhahn.waypoints,missions\\\\Szenario_WB_Hotel_Gabelbach_Mission_Ilmenau_Sportplatz.waypoints,missions\\\\Szenario_WB_Hotel_Gabelbach_Mission_Manebach_Mitte.waypoints,missions\\\\Szenario_WB_Hotel_Gabelbach_Mission_Manebach_Sued.waypoints\""
param *.missionControl.missionFiles "\"missions\\\\Szenario_WB_Hotel_Gabelbach_Mission_Hotel.waypoints,missions\\\\Szenario_WB_Hotel_Gabelbach_Mission_Kickelhahn.waypoints,missions\\\\Szenario_WB_Hotel_Gabelbach_Mission_Ilmenau_Sportplatz.waypoints,missions\\\\Szenario_WB_Hotel_Gabelbach_Mission_Manebach_Mitte.waypoints,missions\\\\Szenario_WB_Hotel_Gabelbach_Mission_Manebach_Sued.waypoints,missions\\\\Szenario_WB_Hotel_Gabelbach_Hover_HoheSchlaufe.waypoints,missions\\\\Szenario_WB_Hotel_Gabelbach_Hover_Kickelhahn.waypoints,missions\\\\Szenario_WB_Hotel_Gabelbach_Hover_Gabelbachskopf.waypoints,missions\\\\Szenario_WB_Hotel_Gabelbach_Hover_Dachskopf.waypoints\""
param *.uav[0].startX 3537m
param *.uav[0].startY 965m
param *.uav[0].startZ 539m
param *.uav[1].startX 312m
param *.uav[1].startY 1262m
param *.uav[1].startZ 540m
param *.uav[2].startX 2185m
param *.uav[2].startY 3026m
param *.uav[2].startZ 778m
param *.uav[3].startX 3537m
param *.uav[3].startY 965m
param *.uav[3].startZ 539m
param *.uav[4].startX 312m
param *.uav[4].startY 1262m
param *.uav[4].startZ 540m
param *.uav[5].startX 2185m
param *.uav[5].startY 3026m
param *.uav[5].startZ 778m
param *.uav[6].startX 3537m
param *.uav[6].startY 965m
param *.uav[6].startZ 539m
param *.uav[7].startX 312m
param *.uav[7].startY 1262m
param *.uav[7].startZ 540m
param *.uav[8].startX 2185m
param *.uav[8].startY 3026m
param *.uav[8].startZ 778m
param *.uav[9].startX 3537m
param *.uav[9].startY 965m
param *.uav[9].startZ 539m
param *.uav[10].startX 3537m
param *.uav[10].startY 965m
param *.uav[10].startZ 539m
param *.uav[11].startX 312m
param *.uav[11].startY 1262m
param *.uav[11].startZ 540m
param *.uav[12].startX 2185m
param *.uav[12].startY 3026m
param *.uav[12].startZ 778m
param *.uav[13].startX 3537m
param *.uav[13].startY 965m
param *.uav[13].startZ 539m
param *.uav[14].startX 312m
param *.uav[14].startY 1262m
param *.uav[14].startZ 540m
param *.uav[15].startX 2185m
param *.uav[15].startY 3026m
param *.uav[15].startZ 778m
param *.uav[16].startX 3537m
param *.uav[16].startY 965m
param *.uav[16].startZ 539m
param *.uav[17].startX 312m
param *.uav[17].startY 1262m
param *.uav[17].startZ 540m
param *.uav[18].startX 2185m
param *.uav[18].startY 3026m
param *.uav[18].startZ 778m
param *.uav[19].startX 3537m
param *.uav[19].startY 965m
param *.uav[19].startZ 539m
param *.uav[20].startX 3537m
param *.uav[20].startY 965m
param *.uav[20].startZ 539m
param *.uav[21].startX 312m
param *.uav[21].startY 1262m
param *.uav[21].startZ 540m
param *.uav[22].startX 2185m
param *.uav[22].startY 3026m
param *.uav[22].startZ 778m
param *.uav[23].startX 3537m
param *.uav[23].startY 965m
param *.uav[23].startZ 539m
param *.uav[24].startX 312m
param *.uav[24].startY 1262m
param *.uav[24].startZ 540m
param *.uav[25].startX 2185m
param *.uav[25].startY 3026m
param *.uav[25].startZ 778m
param *.uav[26].startX 3537m
param *.uav[26].startY 965m
param *.uav[26].startZ 539m
param *.uav[27].startX 312m
param *.uav[27].startY 1262m
param *.uav[27].startZ 540m
param *.uav[28].startX 2185m
param *.uav[28].startY 3026m
param *.uav[28].startZ 778m
param *.uav[29].startX 3537m
param *.uav[29].startY 965m
param *.uav[29].startZ 539m
param *.uav[30].startX 3537m
param *.uav[30].startY 965m
param *.uav[30].startZ 539m
param *.uav[31].startX 312m
param *.uav[31].startY 1262m
param *.uav[31].startZ 540m
param *.uav[32].startX 2185m
param *.uav[32].startY 3026m
param *.uav[32].startZ 778m
param *.uav[33].startX 3537m
param *.uav[33].startY 965m
param *.uav[33].startZ 539m
param *.uav[34].startX 312m
param *.uav[34].startY 1262m
param *.uav[34].startZ 540m
param *.uav[35].startX 2185m
param *.uav[35].startY 3026m
param *.uav[35].startZ 778m
param *.uav[36].startX 3537m
param *.uav[36].startY 965m
param *.uav[36].startZ 539m
param *.uav[37].startX 312m
param *.uav[37].startY 1262m
param *.uav[37].startZ 540m
param *.uav[38].startX 2185m
param *.uav[38].startY 3026m
param *.uav[38].startZ 778m
param *.uav[39].startX 3537m
param *.uav[39].startY 965m
param *.uav[39].startZ 539m
param *.uav[40].startX 3537m
param *.uav[40].startY 965m
param *.uav[40].startZ 539m
param *.uav[41].startX 312m
param *.uav[41].startY 1262m
param *.uav[41].startZ 540m
param *.uav[42].startX 2185m
param *.uav[42].startY 3026m
param *.uav[42].startZ 778m
param *.uav[43].startX 3537m
param *.uav[43].startY 965m
param *.uav[43].startZ 539m
param *.uav[44].startX 312m
param *.uav[44].startY 1262m
param *.uav[44].startZ 540m
param *.uav[45].startX 2185m
param *.uav[45].startY 3026m
param *.uav[45].startZ 778m
param *.uav[46].startX 3537m
param *.uav[46].startY 965m
param *.uav[46].startZ 539m
param *.uav[47].startX 312m
param *.uav[47].startY 1262m
param *.uav[47].startZ 540m
param *.uav[48].startX 2185m
param *.uav[48].startY 3026m
param *.uav[48].startZ 778m
param *.uav[49].startX 3537m
param *.uav[49].startY 965m
param *.uav[49].startZ 539m
param *.uav[50].startX 3537m
param *.uav[50].startY 965m
param *.uav[50].startZ 539m
param *.uav[51].startX 312m
param *.uav[51].startY 1262m
param *.uav[51].startZ 540m
param *.uav[52].startX 2185m
param *.uav[52].startY 3026m
param *.uav[52].startZ 778m
param *.uav[53].startX 3537m
param *.uav[53].startY 965m
param *.uav[53].startZ 539m
param *.uav[54].startX 312m
param *.uav[54].startY 1262m
param *.uav[54].startZ 540m
param *.uav[55].startX 2185m
param *.uav[55].startY 3026m
param *.uav[55].startZ 778m
param *.uav[56].startX 3537m
param *.uav[56].startY 965m
param *.uav[56].startZ 539m
param *.uav[57].startX 312m
param *.uav[57].startY 1262m
param *.uav[57].startZ 540m
param *.uav[58].startX 2185m
param *.uav[58].startY 3026m
param *.uav[58].startZ 778m
param *.uav[59].startX 3537m
param *.uav[59].startY 965m
param *.uav[59].startZ 539m
param *.uav[60].startX 3537m
param *.uav[60].startY 965m
param *.uav[60].startZ 539m
param *.uav[61].startX 312m
param *.uav[61].startY 1262m
param *.uav[61].startZ 540m
param *.uav[62].startX 2185m
param *.uav[62].startY 3026m
param *.uav[62].startZ 778m
param *.uav[63].startX 3537m
param *.uav[63].startY 965m
param *.uav[63].startZ 539m
param *.uav[64].startX 312m
param *.uav[64].startY 1262m
param *.uav[64].startZ 540m
param *.uav[65].startX 2185m
param *.uav[65].startY 3026m
param *.uav[65].startZ 778m
param *.uav[66].startX 3537m
param *.uav[66].startY 965m
param *.uav[66].startZ 539m
param *.uav[67].startX 312m
param *.uav[67].startY 1262m
param *.uav[67].startZ 540m
param *.uav[68].startX 2185m
param *.uav[68].startY 3026m
param *.uav[68].startZ 778m
param *.uav[69].startX 3537m
param *.uav[69].startY 965m
param *.uav[69].startZ 539m
param *.uav[70].startX 3537m
param *.uav[70].startY 965m
param *.uav[70].startZ 539m
param *.uav[71].startX 312m
param *.uav[71].startY 1262m
param *.uav[71].startZ 540m
param *.uav[72].startX 2185m
param *.uav[72].startY 3026m
param *.uav[72].startZ 778m
param *.uav[73].startX 3537m
param *.uav[73].startY 965m
param *.uav[73].startZ 539m
param *.uav[74].startX 312m
param *.uav[74].startY 1262m
param *.uav[74].startZ 540m
param *.uav[75].startX 2185m
param *.uav[75].startY 3026m
param *.uav[75].startZ 778m
param *.uav[76].startX 3537m
param *.uav[76].startY 965m
param *.uav[76].startZ 539m
param *.uav[77].startX 312m
param *.uav[77].startY 1262m
param *.uav[77].startZ 540m
param *.uav[78].startX 2185m
param *.uav[78].startY 3026m
param *.uav[78].startZ 778m
param *.uav[79].startX 3537m
param *.uav[79].startY 965m
param *.uav[79].startZ 539m
param *.uav[80].startX 3537m
param *.uav[80].startY 965m
param *.uav[80].startZ 539m
param *.uav[81].startX 312m
param *.uav[81].startY 1262m
param *.uav[81].startZ 540m
param *.uav[82].startX 2185m
param *.uav[82].startY 3026m
param *.uav[82].startZ 778m
param *.uav[83].startX 3537m
param *.uav[83].startY 965m
param *.uav[83].startZ 539m
param *.uav[84].startX 312m
param *.uav[84].startY 1262m
param *.uav[84].startZ 540m
param *.uav[85].startX 2185m
param *.uav[85].startY 3026m
param *.uav[85].startZ 778m
param *.uav[86].startX 3537m
param *.uav[86].startY 965m
param *.uav[86].startZ 539m
param *.uav[87].startX 312m
param *.uav[87].startY 1262m
param *.uav[87].startZ 540m
param *.uav[88].startX 2185m
param *.uav[88].startY 3026m
param *.uav[88].startZ 778m
param *.uav[89].startX 3537m
param *.uav[89].startY 965m
param *.uav[89].startZ 539m
param *.uav[90].startX 3537m
param *.uav[90].startY 965m
param *.uav[90].startZ 539m
param *.uav[91].startX 312m
param *.uav[91].startY 1262m
param *.uav[91].startZ 540m
param *.uav[92].startX 2185m
param *.uav[92].startY 3026m
param *.uav[92].startZ 778m
param *.uav[93].startX 3537m
param *.uav[93].startY 965m
param *.uav[93].startZ 539m
param *.uav[94].startX 312m
param *.uav[94].startY 1262m
param *.uav[94].startZ 540m
param *.uav[95].startX 2185m
param *.uav[95].startY 3026m
param *.uav[95].startZ 778m
param *.uav[96].startX 3537m
param *.uav[96].startY 965m
param *.uav[96].startZ 539m
param *.uav[97].startX 312m
param *.uav[97].startY 1262m
param *.uav[97].startZ 540m
param *.uav[98].startX 2185m
param *.uav[98].startY 3026m
param *.uav[98].startZ 778m
param *.uav[99].startX 3537m
param *.uav[99].startY 965m
param *.uav[99].startZ 539m
param *.osgEarthScene.scene "\"boston.earth\""
param *.playgroundLatitude 42.3558
param *.playgroundLongitude -71.0677
param *.playgroundWidth 400m
param *.playgroundHeight 200m
param *.channelController.connectionColor "\"#0000FF40\""
param *.channelController.showConnections false
param *.uav[*].modelURL "\"quadrocopter.small.obj.15.scale.0,0,90.rot\""
param *.uav[*].labelColor "\"#FF7C00CC\""
param *.uav[*].label2Color "\"#FF7C00EE\""
param *.uav[*].batteryCapacity 5200mAh
param *.uav[*].batteryRemaining uav[index].batteryCapacity
param *.uav[*].predictionQuantile 0.95
param *.uav[*].replacementMethod 2
param *.uav[*].weightedSumWeight 0.5
param *.cs[*].modelURL "\"chargingstation_v1.osgt.2.scale.0,0,0.rot.0,0,-15e-1.trans\""
param *.cs[*].spotsWaiting 999
param *.cs[*].spotsCharging 999
param *.cs[*].chargeEffectivenessPercentage 100
param *.cs[*].nonLinearPhaseStartPercentage 85
param *.cs[*].chargeCurrent 6.0A
param *.cs[*].prioritizeFastCharge true
param *.missionControl.replacementSearchMethod 0
param *.*.timeStep 9s

scalar OsgEarthNet.uav[0] utilizationSecMission 9561.6465241608
scalar OsgEarthNet.uav[0] utilizationSecMaintenance 7430.8808204992
scalar OsgEarthNet.uav[0] utilizationSecCharge 61960
scalar OsgEarthNet.uav[0] utilizationSecIdle 180247.47165534
scalar OsgEarthNet.uav[0] utilizationEnergyMission 43772.173278809
scalar OsgEarthNet.uav[0] utilizationEnergyMaintenance 34156.045585632
scalar OsgEarthNet.uav[0] utilizationEnergyCharge 77667.465820312
scalar OsgEarthNet.uav[0] utilizationEnergyOverdrawMission 0
scalar OsgEarthNet.uav[0] utilizationEnergyOverdrawMaintenance 0
scalar OsgEarthNet.uav[0] utilizationCountMissions 17
scalar OsgEarthNet.uav[0] utilizationCountManeuversMission 151
scalar OsgEarthNet.uav[0] utilizationCountManeuversMaintenance 34
scalar OsgEarthNet.uav[0] utilizationCountChargeState 17
scalar OsgEarthNet.uav[0] utilizationCountOverdrawnAfterMission 0
scalar OsgEarthNet.uav[0] utilizationCountIdleState 18
scalar OsgEarthNet.uav[0] utilizationFail 0
scalar OsgEarthNet.uav[0] simulationTime 259200
scalar OsgEarthNet.uav[1] utilizationSecMission 28181.285938083
scalar OsgEarthNet.uav[1] utilizationSecMaintenance 17918.694779004
scalar OsgEarthNet.uav[1] utilizationSecCharge 168960
scalar OsgEarthNet.uav[1] utilizationSecIdle 44140.018282913
scalar OsgEarthNet.uav[1] utilizationEnergyMission 131440.84539195
scalar OsgEarthNet.uav[1] utilizationEnergyMaintenance 83487.411090851
scalar OsgEarthNet.uav[1] utilizationEnergyCharge 212865.0012207
scalar OsgEarthNet.uav[1] utilizationEnergyOverdrawMission 0
scalar OsgEarthNet.uav[1] utilizationEnergyOverdrawMaintenance 0
scalar OsgEarthNet.uav[1] utilizationCountMissions 46
scalar OsgEarthNet.uav[1] utilizationCountManeuversMission 458
scalar OsgEarthNet.uav[1] utilizationCountManeuversMaintenance 93
scalar OsgEarthNet.uav[1] utilizationCountChargeState 46
scalar OsgEarthNet.uav[1] utilizationCountOverdrawnAfterMission 0
scalar OsgEarthNet.uav[1] utilizationCountIdleState 47
scalar OsgEarthNet.uav[1] utilizationFail 0
scalar OsgEarthNet.uav[1] simulationTime 259200
scalar OsgEarthNet.uav[2] utilizationSecMission 28447.836902706
scalar OsgEarthNet.uav[2] utilizationSecMaintenance 18086.086914242
scalar OsgEarthNet.uav[2] utilizationSecCharge 166616.44410239
scalar OsgEarthNet.uav[2] utilizationSecIdle 46049.631080665
scalar OsgEarthNet.uav[2] utilizationEnergyMission 130868.91872406
scalar OsgEarthNet.uav[2] utilizationEnergyMaintenance 82086.637271881
scalar OsgEarthNet.uav[2] utilizationEnergyCharge 208550.70544434
scalar OsgEarthNet.uav[2] utilizationEnergyOverdrawMission 0
scalar OsgEarthNet.uav[2] utilizationEnergyOverdrawMaintenance 0
scalar OsgEarthNet.uav[2] utilizationCountMissions 47
scalar OsgEarthNet.uav[2] utilizationCountManeuversMission 475
scalar OsgEarthNet.uav[2] utilizationCountManeuversMaintenance 94
scalar OsgEarthNet.uav[2] utilizationCountChargeState 47
scalar OsgEarthNet.uav[2] utilizationCountOverdrawnAfterMission 0
scalar OsgEarthNet.uav[2] utilizationCountIdleState 47
scalar OsgEarthNet.uav[2] utilizationFail 0
scalar OsgEarthNet.uav[2] simulationTime 259200
scalar OsgEarthNet.uav[3] utilizationSecMission 28922.528546751
scalar OsgEarthNet.uav[3] utilizationSecMaintenance 20835.470453248
scalar OsgEarthNet.uav[3] utilizationSecCharge 179300
scalar OsgEarthNet.uav[3] utilizationSecIdle 30142
scalar OsgEarthNet.uav[3] utilizationEnergyMission 132303.04743195
scalar OsgEarthNet.uav[3] utilizationEnergyMaintenance 97279.638839137
scalar OsgEarthNet.uav[3] utilizationEnergyCharge 225161.39624023
scalar OsgEarthNet.uav[3] utilizationEnergyOverdrawMission 0
scalar OsgEarthNet.uav[3] utilizationEnergyOverdrawMaintenance 0
scalar OsgEarthNet.uav[3] utilizationCountMissions 50
scalar OsgEarthNet.uav[3] utilizationCountManeuversMission 472
scalar OsgEarthNet.uav[3] utilizationCountManeuversMaintenance 99
scalar OsgEarthNet.uav[3] utilizationCountChargeState 49
scalar OsgEarthNet.uav[3] utilizationCountOverdrawnAfterMission 0
scalar OsgEarthNet.uav[3] utilizationCountIdleState 50
scalar OsgEarthNet.uav[3] utilizationFail 0
scalar OsgEarthNet.uav[3] simulationTime 259200
scalar OsgEarthNet.uav[4] utilizationSecMission 15970.53819339
scalar OsgEarthNet.uav[4] utilizationSecMaintenance 10549.492467201
scalar OsgEarthNet.uav[4] utilizationSecCharge 98310
scalar OsgEarthNet.uav[4] utilizationSecIdle 134369.96833941
scalar OsgEarthNet.uav[4] utilizationEnergyMission 74476.581459045
scalar OsgEarthNet.uav[4] utilizationEnergyMaintenance 48991.96049118
scalar OsgEarthNet.uav[4] utilizationEnergyCharge 123329.57714844
scalar OsgEarthNet.uav[4] utilizationEnergyOverdrawMission 0
scalar OsgEarthNet.uav[4] utilizationEnergyOverdrawMaintenance 0
scalar OsgEarthNet.uav[4] utilizationCountMissions 27
scalar OsgEarthNet.uav[4] utilizationCountManeuversMission 257
scalar OsgEarthNet.uav[4] utilizationCountManeuversMaintenance 54
scalar OsgEarthNet.uav[4] utilizationCountChargeState 27
scalar OsgEarthNet.uav[4] utilizationCountOverdrawnAfterMission 0
scalar OsgEarthNet.uav[4] utilizationCountIdleState 28
scalar OsgEarthNet.uav[4] utilizationFail 0
scalar OsgEarthNet.uav[4] simulationTime 259200
scalar OsgEarthNet.uav[5] utilizationSecMission 26868.859656809
scalar OsgEarthNet.uav[5] utilizationSecMaintenance 17448.972308652
scalar OsgEarthNet.uav[5] utilizationSecCharge 164826.71138114
scalar OsgEarthNet.uav[5] utilizationSecIdle 50055.455653403
scalar OsgEarthNet.uav[5] utilizationEnergyMission 125650.82436371
scalar OsgEarthNet.uav[5] utilizationEnergyMaintenance 81758.224739075
scalar OsgEarthNet.uav[5] utilizationEnergyCharge 207548.61889648
scalar OsgEarthNet.uav[5] utilizationEnergyOverdrawMission 0
scalar OsgEarthNet.uav[5] utilizationEnergyOverdrawMaintenance 0
scalar OsgEarthNet.uav[5] utilizationCountMissions 45
scalar OsgEarthNet.uav[5] utilizationCountManeuversMission 434
scalar OsgEarthNet.uav[5] utilizationCountManeuversMaintenance 90
scalar OsgEarthNet.uav[5] utilizationCountChargeState 45
scalar OsgEarthNet.uav[5] utilizationCountOverdrawnAfterMission 0
scalar OsgEarthNet.uav[5] utilizationCountIdleState 45
scalar OsgEarthNet.uav[5] utilizationFail 0
scalar OsgEarthNet.uav[5] simulationTime 259200
scalar OsgEarthNet.uav[6] utilizationSecMission 29322.576741484
scalar OsgEarthNet.uav[6] utilizationSecMaintenance 18151.473015486
scalar OsgEarthNet.uav[6] utilizationSecCharge 174550
scalar OsgEarthNet.uav[6] utilizationSecIdle 37175.94924303
scalar OsgEarthNet.uav[6] utilizationEnergyMission 135509.11324313
scalar OsgEarthNet.uav[6] utilizationEnergyMaintenance 84702.195446014
scalar OsgEarthNet.uav[6] utilizationEnergyCharge 219193.25341797
scalar OsgEarthNet.uav[6] utilizationEnergyOverdrawMission 0
scalar OsgEarthNet.uav[6] utilizationEnergyOverdrawMaintenance 0
scalar OsgEarthNet.uav[6] utilizationCountMissions 48
scalar OsgEarthNet.uav[6] utilizationCountManeuversMission 494
scalar OsgEarthNet.uav[6] utilizationCountManeuversMaintenance 97
scalar OsgEarthNet.uav[6] utilizationCountChargeState 48
scalar OsgEarthNet.uav[6] utilizationCountOverdrawnAfterMission 0
scalar OsgEarthNet.uav[6] utilizationCountIdleState 49
scalar OsgEarthNet.uav[6] utilizationFail 0
scalar OsgEarthNet.uav[6] simulationTime 259200
scalar OsgEarthNet.uav[7] utilizationSecMission 27647.258176457
scalar OsgEarthNet.uav[7] utilizationSecMaintenance 16263.961315063
scalar OsgEarthNet.uav[7] utilizationSecCharge 158665.02050782
scalar OsgEarthNet.uav[7] utilizationSecIdle 56623.75900066
scalar OsgEarthNet.uav[7] utilizationEnergyMission 127017.36288452
scalar OsgEarthNet.uav[7] utilizationEnergyMaintenance 75689.062389374
scalar OsgEarthNet.uav[7] utilizationEnergyCharge 200063.5534668
scalar OsgEarthNet.uav[7] utilizationEnergyOverdrawMission 0
scalar OsgEarthNet.uav[7] utilizationEnergyOverdrawMaintenance 0
scalar OsgEarthNet.uav[7] utilizationCountMissions 44
scalar OsgEarthNet.uav[7] utilizationCountManeuversMission 466
scalar OsgEarthNet.uav[7] utilizationCountManeuversMaintenance 88
scalar OsgEarthNet.uav[7] utilizationCountChargeState 44
scalar OsgEarthNet.uav[7] utilizationCountOverdrawnAfterMission 0
scalar OsgEarthNet.uav[7] utilizationCountIdleState 44
scalar OsgEarthNet.uav[7] utilizationFail 0
scalar OsgEarthNet.uav[7] simulationTime 259200
scalar OsgEarthNet.uav[8] utilizationSecMission 23216.349166211
scalar OsgEarthNet.uav[8] utilizationSecMaintenance 17098.132828492
scalar OsgEarthNet.uav[8] utilizationSecCharge 147005.68019126
scalar OsgEarthNet.uav[8] utilizationSecIdle 71879.83681404
scalar OsgEarthNet.uav[8] utilizationEnergyMission 107556.31226349
scalar OsgEarthNet.uav[8] utilizationEnergyMaintenance 79109.114711761
scalar OsgEarthNet.uav[8] utilizationEnergyCharge 184941.25
scalar OsgEarthNet.uav[8] utilizationEnergyOverdrawMission 0
scalar OsgEarthNet.uav[8] utilizationEnergyOverdrawMaintenance 0
scalar OsgEarthNet.uav[8] utilizationCountMissions 41
scalar OsgEarthNet.uav[8] utilizationCountManeuversMission 375
scalar OsgEarthNet.uav[8] utilizationCountManeuversMaintenance 82
scalar OsgEarthNet.uav[8] utilizationCountChargeState 41
scalar OsgEarthNet.uav[8] utilizationCountOverdrawnAfterMission 0
scalar OsgEarthNet.uav[8] utilizationCountIdleState 41
scalar OsgEarthNet.uav[8] utilizationFail 0
scalar OsgEarthNet.uav[8] simulationTime 259200
scalar OsgEarthNet.uav[9] utilizationSecMission 623.68863475643
scalar OsgEarthNet.uav[9] utilizationSecMaintenance 394.94199877579
scalar OsgEarthNet.uav[9] utilizationSecCharge 3690
scalar OsgEarthNet.uav[9] utilizationSecIdle 254491.36836647
scalar OsgEarthNet.uav[9] utilizationEnergyMission 2754.7994537354
scalar OsgEarthNet.uav[9] utilizationEnergyMaintenance 1904.7623519897
scalar OsgEarthNet.uav[9] utilizationEnergyCharge 4646.3725585938
scalar OsgEarthNet.uav[9] utilizationEnergyOverdrawMission 0
scalar OsgEarthNet.uav[9] utilizationEnergyOverdrawMaintenance 0
scalar OsgEarthNet.uav[9] utilizationCountMissions 1
scalar OsgEarthNet.uav[9] utilizationCountManeuversMission 10
scalar OsgEarthNet.uav[9] utilizationCountManeuversMaintenance 2
scalar OsgEarthNet.uav[9] utilizationCountChargeState 1
scalar OsgEarthNet.uav[9] utilizationCountOverdrawnAfterMission 0
scalar OsgEarthNet.uav[9] utilizationCountIdleState 2
scalar OsgEarthNet.uav[9] utilizationFail 0
scalar OsgEarthNet.uav[9] simulationTime 259200
scalar OsgEarthNet.uav[10] utilizationSecMission 25461.785601746
scalar OsgEarthNet.uav[10] utilizationSecMaintenance 17085.117157726
scalar OsgEarthNet.uav[10] utilizationSecCharge 153986.57336461
scalar OsgEarthNet.uav[10] utilizationSecIdle 62666.522875914
scalar OsgEarthNet.uav[10] utilizationEnergyMission 118335.43987656
scalar OsgEarthNet.uav[10] utilizationEnergyMaintenance 78898.695892334
scalar OsgEarthNet.uav[10] utilizationEnergyCharge 193938.77819824
scalar OsgEarthNet.uav[10] utilizationEnergyOverdrawMission 0
scalar OsgEarthNet.uav[10] utilizationEnergyOverdrawMaintenance 0
scalar OsgEarthNet.uav[10] utilizationCountMissions 43
scalar OsgEarthNet.uav[10] utilizationCountManeuversMission 411
scalar OsgEarthNet.uav[10] utilizationCountManeuversMaintenance 86
scalar OsgEarthNet.uav[10] utilizationCountChargeState 43
scalar OsgEarthNet.uav[10] utilizationCountOverdrawnAfterMission 0
scalar OsgEarthNet.uav[10] utilizationCountIdleState 43
scalar OsgEarthNet.uav[10] utilizationFail 0
scalar OsgEarthNet.uav[10] simulationTime 259200
scalar OsgEarthNet.uav[11] utilizationSecMission 29100.444335361
scalar OsgEarthNet.uav[11] utilizationSecMaintenance 19450.19997725
scalar OsgEarthNet.uav[11] utilizationSecCharge 178777.35468739
scalar OsgEarthNet.uav[11] utilizationSecIdle 31872
scalar OsgEarthNet.uav[11] utilizationEnergyMission 135120.76472855
scalar OsgEarthNet.uav[11] utilizationEnergyMaintenance 91770.024295807
scalar OsgEarthNet.uav[11] utilizationEnergyCharge 224383.53649902
scalar OsgEarthNet.uav[11] utilizationEnergyOverdrawMission 0
scalar OsgEarthNet.uav[11] utilizationEnergyOverdrawMaintenance 0
scalar OsgEarthNet.uav[11] utilizationCountMissions 50
scalar OsgEarthNet.uav[11] utilizationCountManeuversMission 478
scalar OsgEarthNet.uav[11] utilizationCountManeuversMaintenance 99
scalar OsgEarthNet.uav[11] utilizationCountChargeState 50
scalar OsgEarthNet.uav[11] utilizationCountOverdrawnAfterMission 0
scalar OsgEarthNet.uav[11] utilizationCountIdleState 50
scalar OsgEarthNet.uav[11] utilizationFail 0
scalar OsgEarthNet.uav[11] simulationTime 259200
scalar OsgEarthNet.uav[12] utilizationSecMission 24811.735004969
scalar OsgEarthNet.uav[12] utilizationSecMaintenance 13171.78898777
scalar OsgEarthNet.uav[12] utilizationSecCharge 137001.76425535
scalar OsgEarthNet.uav[12] utilizationSecIdle 84214.710751914
scalar OsgEarthNet.uav[12] utilizationEnergyMission 114883.07543182
scalar OsgEarthNet.uav[12] utilizationEnergyMaintenance 61359.571815491
scalar OsgEarthNet.uav[12] utilizationEnergyCharge 173012.64440918
scalar OsgEarthNet.uav[12] utilizationEnergyOverdrawMission 0
scalar OsgEarthNet.uav[12] utilizationEnergyOverdrawMaintenance 0
scalar OsgEarthNet.uav[12] utilizationCountMissions 38
scalar OsgEarthNet.uav[12] utilizationCountManeuversMission 406
scalar OsgEarthNet.uav[12] utilizationCountManeuversMaintenance 76
scalar OsgEarthNet.uav[12] utilizationCountChargeState 38
scalar OsgEarthNet.uav[12] utilizationCountOverdrawnAfterMission 0
scalar OsgEarthNet.uav[12] utilizationCountIdleState 38
scalar OsgEarthNet.uav[12] utilizationFail 0
scalar OsgEarthNet.uav[12] simulationTime 259200
scalar OsgEarthNet.uav[13] utilizationSecMission 26690.531337019
scalar OsgEarthNet.uav[13] utilizationSecMaintenance 18677.341379843
scalar OsgEarthNet.uav[13] utilizationSecCharge 167338.7341682
scalar OsgEarthNet.uav[13] utilizationSecIdle 46493.392114941
scalar OsgEarthNet.uav[13] utilizationEnergyMission 123649.87812042
scalar OsgEarthNet.uav[13] utilizationEnergyMaintenance 87199.94386673
scalar OsgEarthNet.uav[13] utilizationEnergyCharge 210189.84228516
scalar OsgEarthNet.uav[13] utilizationEnergyOverdrawMission 0
scalar OsgEarthNet.uav[13] utilizationEnergyOverdrawMaintenance 0
scalar OsgEarthNet.uav[13] utilizationCountMissions 46
scalar OsgEarthNet.uav[13] utilizationCountManeuversMission 440
scalar OsgEarthNet.uav[13] utilizationCountManeuversMaintenance 92
scalar OsgEarthNet.uav[13] utilizationCountChargeState 46
scalar OsgEarthNet.uav[13] utilizationCountOverdrawnAfterMission 0
scalar OsgEarthNet.uav[13] utilizationCountIdleState 46
scalar OsgEarthNet.uav[13] utilizationFail 0
scalar OsgEarthNet.uav[13] simulationTime 259200
scalar OsgEarthNet.uav[14] utilizationSecMission 26164.215622221
scalar OsgEarthNet.uav[14] utilizationSecMaintenance 16295.351644578
scalar OsgEarthNet.uav[14] utilizationSecCharge 154230
scalar OsgEarthNet.uav[14] utilizationSecIdle 62510.431733201
scalar OsgEarthNet.uav[14] utilizationEnergyMission 121332.25139236
scalar OsgEarthNet.uav[14] utilizationEnergyMaintenance 76689.44438626
scalar OsgEarthNet.uav[14] utilizationEnergyCharge 194155.4765625
scalar OsgEarthNet.uav[14] utilizationEnergyOverdrawMission 0
scalar OsgEarthNet.uav[14] utilizationEnergyOverdrawMaintenance 0
scalar OsgEarthNet.uav[14] utilizationCountMissions 43
scalar OsgEarthNet.uav[14] utilizationCountManeuversMission 448
scalar OsgEarthNet.uav[14] utilizationCountManeuversMaintenance 86
scalar OsgEarthNet.uav[14] utilizationCountChargeState 42
scalar OsgEarthNet.uav[14] utilizationCountOverdrawnAfterMission 0
scalar OsgEarthNet.uav[14] utilizationCountIdleState 43
scalar OsgEarthNet.uav[14] utilizationFail 0
scalar OsgEarthNet.uav[14] simulationTime 259200
scalar OsgEarthNet.uav[15] utilizationSecMission 26924.093874957
scalar OsgEarthNet.uav[15] utilizationSecMaintenance 16777.843037439
scalar OsgEarthNet.uav[15] utilizationSecCharge 159247.35403051
scalar OsgEarthNet.uav[15] utilizationSecIdle 56250.70805709
scalar OsgEarthNet.uav[15] utilizationEnergyMission 124018.73314667
scalar OsgEarthNet.uav[15] utilizationEnergyMaintenance 77741.451564789
scalar OsgEarthNet.uav[15] utilizationEnergyCharge 201017.05053711
scalar OsgEarthNet.uav[15] utilizationEnergyOverdrawMission 0
scalar OsgEarthNet.uav[15] utilizationEnergyOverdrawMaintenance 0
scalar OsgEarthNet.uav[15] utilizationCountMissions 44
scalar OsgEarthNet.uav[15] utilizationCountManeuversMission 438
scalar OsgEarthNet.uav[15] utilizationCountManeuversMaintenance 88
scalar OsgEarthNet.uav[15] utilizationCountChargeState 44
scalar OsgEarthNet.uav[15] utilizationCountOverdrawnAfterMission 0
scalar OsgEarthNet.uav[15] utilizationCountIdleState 44
scalar OsgEarthNet.uav[15] utilizationFail 0
scalar OsgEarthNet.uav[15] simulationTime 259200
scalar OsgEarthNet.uav[16] utilizationSecMission 27518.155676885
scalar OsgEarthNet.uav[16] utilizationSecMaintenance 18727.40147924
scalar OsgEarthNet.uav[16] utilizationSecCharge 170190
scalar OsgEarthNet.uav[16] utilizationSecIdle 42764.441843875
scalar OsgEarthNet.uav[16] utilizationEnergyMission 126825.58675385
scalar OsgEarthNet.uav[16] utilizationEnergyMaintenance 87352.718257904
scalar OsgEarthNet.uav[16] utilizationEnergyCharge 213375.01513672
scalar OsgEarthNet.uav[16] utilizationEnergyOverdrawMission 0
scalar OsgEarthNet.uav[16] utilizationEnergyOverdrawMaintenance 0
scalar OsgEarthNet.uav[16] utilizationCountMissions 47
scalar OsgEarthNet.uav[16] utilizationCountManeuversMission 449
scalar OsgEarthNet.uav[16] utilizationCountManeuversMaintenance 94
scalar OsgEarthNet.uav[16] utilizationCountChargeState 47
scalar OsgEarthNet.uav[16] utilizationCountOverdrawnAfterMission 0
scalar OsgEarthNet.uav[16] utilizationCountIdleState 48
scalar OsgEarthNet.uav[16] utilizationFail 0
scalar OsgEarthNet.uav[16] simulationTime 259200
scalar OsgEarthNet.uav[17] utilizationSecMission 608.41235740769
scalar OsgEarthNet.uav[17] utilizationSecMaintenance 411.08654793843
scalar OsgEarthNet.uav[17] utilizationSecCharge 3700
scalar OsgEarthNet.uav[17] utilizationSecIdle 254480.50009465
scalar OsgEarthNet.uav[17] utilizationEnergyMission 2736.8457183838
scalar OsgEarthNet.uav[17] utilizationEnergyMaintenance 1913.0580673218
scalar OsgEarthNet.uav[17] utilizationEnergyCharge 4649.908203125
scalar OsgEarthNet.uav[17] utilizationEnergyOverdrawMission 0
scalar OsgEarthNet.uav[17] utilizationEnergyOverdrawMaintenance 0
scalar OsgEarthNet.uav[17] utilizationCountMissions 1
scalar OsgEarthNet.uav[17] utilizationCountManeuversMission 11
scalar OsgEarthNet.uav[17] utilizationCountManeuversMaintenance 2
scalar OsgEarthNet.uav[17] utilizationCountChargeState 1
scalar OsgEarthNet.uav[17] utilizationCountOverdrawnAfterMission 0
scalar OsgEarthNet.uav[17] utilizationCountIdleState 2
scalar OsgEarthNet.uav[17] utilizationFail 0
scalar OsgEarthNet.uav[17] simulationTime 259200
scalar OsgEarthNet.uav[18] utilizationSecMission 27196.119701382
scalar OsgEarthNet.uav[18] utilizationSecMaintenance 19175.357243744
scalar OsgEarthNet.uav[18] utilizationSecCharge 170960
scalar OsgEarthNet.uav[18] utilizationSecIdle 41868.522054875
scalar OsgEarthNet.uav[18] utilizationEnergyMission 126138.81318665
scalar OsgEarthNet.uav[18] utilizationEnergyMaintenance 88482.444591522
scalar OsgEarthNet.uav[18] utilizationEnergyCharge 214275.73486328
scalar OsgEarthNet.uav[18] utilizationEnergyOverdrawMission 0
scalar OsgEarthNet.uav[18] utilizationEnergyOverdrawMaintenance 0
scalar OsgEarthNet.uav[18] utilizationCountMissions 47
scalar OsgEarthNet.uav[18] utilizationCountManeuversMission 431
scalar OsgEarthNet.uav[18] utilizationCountManeuversMaintenance 94
scalar OsgEarthNet.uav[18] utilizationCountChargeState 47
scalar OsgEarthNet.uav[18] utilizationCountOverdrawnAfterMission 0
scalar OsgEarthNet.uav[18] utilizationCountIdleState 47
scalar OsgEarthNet.uav[18] utilizationFail 0
scalar OsgEarthNet.uav[18] simulationTime 259200
scalar OsgEarthNet.uav[19] utilizationSecMission 28378.55624196
scalar OsgEarthNet.uav[19] utilizationSecMaintenance 16814.816317141
scalar OsgEarthNet.uav[19] utilizationSecCharge 165332.60817376
scalar OsgEarthNet.uav[19] utilizationSecIdle 48674.018267135
scalar OsgEarthNet.uav[19] utilizationEnergyMission 130276.99490356
scalar OsgEarthNet.uav[19] utilizationEnergyMaintenance 78709.77495575
scalar OsgEarthNet.uav[19] utilizationEnergyCharge 208078.66601562
scalar OsgEarthNet.uav[19] utilizationEnergyOverdrawMission 0
scalar OsgEarthNet.uav[19] utilizationEnergyOverdrawMaintenance 0
scalar OsgEarthNet.uav[19] utilizationCountMissions 46
scalar OsgEarthNet.uav[19] utilizationCountManeuversMission 461
scalar OsgEarthNet.uav[19] utilizationCountManeuversMaintenance 92
scalar OsgEarthNet.uav[19] utilizationCountChargeState 46
scalar OsgEarthNet.uav[19] utilizationCountOverdrawnAfterMission 0
scalar OsgEarthNet.uav[19] utilizationCountIdleState 46
scalar OsgEarthNet.uav[19] utilizationFail 0
scalar OsgEarthNet.uav[19] simulationTime 259200
scalar OsgEarthNet.uav[20] utilizationSecMission 7394.2489367039
scalar OsgEarthNet.uav[20] utilizationSecMaintenance 4426.932973221
scalar OsgEarthNet.uav[20] utilizationSecCharge 43530
scalar OsgEarthNet.uav[20] utilizationSecIdle 203848.81709008
scalar OsgEarthNet.uav[20] utilizationEnergyMission 33810.449684143
scalar OsgEarthNet.uav[20] utilizationEnergyMaintenance 20671.501117706
scalar OsgEarthNet.uav[20] utilizationEnergyCharge 54434.595703125
scalar OsgEarthNet.uav[20] utilizationEnergyOverdrawMission 0
scalar OsgEarthNet.uav[20] utilizationEnergyOverdrawMaintenance 0
scalar OsgEarthNet.uav[20] utilizationCountMissions 12
scalar OsgEarthNet.uav[20] utilizationCountManeuversMission 116
scalar OsgEarthNet.uav[20] utilizationCountManeuversMaintenance 24
scalar OsgEarthNet.uav[20] utilizationCountChargeState 12
scalar OsgEarthNet.uav[20] utilizationCountOverdrawnAfterMission 0
scalar OsgEarthNet.uav[20] utilizationCountIdleState 13
scalar OsgEarthNet.uav[20] utilizationFail 0
scalar OsgEarthNet.uav[20] simulationTime 259200
scalar OsgEarthNet.uav[21] utilizationSecMission 443.5870541303
scalar OsgEarthNet.uav[21] utilizationSecMaintenance 494.47431392059
scalar OsgEarthNet.uav[21] utilizationSecCharge 3720
scalar OsgEarthNet.uav[21] utilizationSecIdle 254541.93763195
scalar OsgEarthNet.uav[21] utilizationEnergyMission 2124.8499145508
scalar OsgEarthNet.uav[21] utilizationEnergyMaintenance 2543.3739128113
scalar OsgEarthNet.uav[21] utilizationEnergyCharge 4692.349609375
scalar OsgEarthNet.uav[21] utilizationEnergyOverdrawMission 0
scalar OsgEarthNet.uav[21] utilizationEnergyOverdrawMaintenance 0
scalar OsgEarthNet.uav[21] utilizationCountMissions 1
scalar OsgEarthNet.uav[21] utilizationCountManeuversMission 7
scalar OsgEarthNet.uav[21] utilizationCountManeuversMaintenance 2
scalar OsgEarthNet.uav[21] utilizationCountChargeState 1
scalar OsgEarthNet.uav[21] utilizationCountOverdrawnAfterMission 0
scalar OsgEarthNet.uav[21] utilizationCountIdleState 2
scalar OsgEarthNet.uav[21] utilizationFail 0
scalar OsgEarthNet.uav[21] simulationTime 259200
scalar OsgEarthNet.uav[22] utilizationSecMission 2561.2430154986
scalar OsgEarthNet.uav[22] utilizationSecMaintenance 1496.0542311942
scalar OsgEarthNet.uav[22] utilizationSecCharge 14520
scalar OsgEarthNet.uav[22] utilizationSecIdle 240622.70175331
scalar OsgEarthNet.uav[22] utilizationEnergyMission 11570.109329224
scalar OsgEarthNet.uav[22] utilizationEnergyMaintenance 6503.7878570557
scalar OsgEarthNet.uav[22] utilizationEnergyCharge 18134.246582031
scalar OsgEarthNet.uav[22] utilizationEnergyOverdrawMission 0
scalar OsgEarthNet.uav[22] utilizationEnergyOverdrawMaintenance 0
scalar OsgEarthNet.uav[22] utilizationCountMissions 4
scalar OsgEarthNet.uav[22] utilizationCountManeuversMission 40
scalar OsgEarthNet.uav[22] utilizationCountManeuversMaintenance 8
scalar OsgEarthNet.uav[22] utilizationCountChargeState 4
scalar OsgEarthNet.uav[22] utilizationCountOverdrawnAfterMission 0
scalar OsgEarthNet.uav[22] utilizationCountIdleState 5
scalar OsgEarthNet.uav[22] utilizationFail 0
scalar OsgEarthNet.uav[22] simulationTime 259200
scalar OsgEarthNet.uav[23] utilizationSecMission 558.29059458083
scalar OsgEarthNet.uav[23] utilizationSecMaintenance 416.7137519136
scalar OsgEarthNet.uav[23] utilizationSecCharge 3710
scalar OsgEarthNet.uav[23] utilizationSecIdle 254514.99465351
scalar OsgEarthNet.uav[23] utilizationEnergyMission 2587.0598449707
scalar OsgEarthNet.uav[23] utilizationEnergyMaintenance 2091.9134140015
scalar OsgEarthNet.uav[23] utilizationEnergyCharge 4678.9672851562
scalar OsgEarthNet.uav[23] utilizationEnergyOverdrawMission 0
scalar OsgEarthNet.uav[23] utilizationEnergyOverdrawMaintenance 0
scalar OsgEarthNet.uav[23] utilizationCountMissions 1
scalar OsgEarthNet.uav[23] utilizationCountManeuversMission 8
scalar OsgEarthNet.uav[23] utilizationCountManeuversMaintenance 2
scalar OsgEarthNet.uav[23] utilizationCountChargeState 1
scalar OsgEarthNet.uav[23] utilizationCountOverdrawnAfterMission 0
scalar OsgEarthNet.uav[23] utilizationCountIdleState 2
scalar OsgEarthNet.uav[23] utilizationFail 0
scalar OsgEarthNet.uav[23] simulationTime 259200
scalar OsgEarthNet.uav[24] utilizationSecMission 28385.243379248
scalar OsgEarthNet.uav[24] utilizationSecMaintenance 19140.858991283
scalar OsgEarthNet.uav[24] utilizationSecCharge 175084.51262488
scalar OsgEarthNet.uav[24] utilizationSecIdle 36589.384004586
scalar OsgEarthNet.uav[24] utilizationEnergyMission 132004.79486084
scalar OsgEarthNet.uav[24] utilizationEnergyMaintenance 88949.149734497
scalar OsgEarthNet.uav[24] utilizationEnergyCharge 220455.05932617
scalar OsgEarthNet.uav[24] utilizationEnergyOverdrawMission 0
scalar OsgEarthNet.uav[24] utilizationEnergyOverdrawMaintenance 0
scalar OsgEarthNet.uav[24] utilizationCountMissions 48
scalar OsgEarthNet.uav[24] utilizationCountManeuversMission 468
scalar OsgEarthNet.uav[24] utilizationCountManeuversMaintenance 96
scalar OsgEarthNet.uav[24] utilizationCountChargeState 48
scalar OsgEarthNet.uav[24] utilizationCountOverdrawnAfterMission 0
scalar OsgEarthNet.uav[24] utilizationCountIdleState 48
scalar OsgEarthNet.uav[24] utilizationFail 0
scalar OsgEarthNet.uav[24] simulationTime 259200
scalar OsgEarthNet.uav[25] utilizationSecMission 28457.877278238
scalar OsgEarthNet.uav[25] utilizationSecMaintenance 18160.668763045
scalar OsgEarthNet.uav[25] utilizationSecCharge 170280
scalar OsgEarthNet.uav[25] utilizationSecIdle 42301.452958717
scalar OsgEarthNet.uav[25] utilizationEnergyMission 130902.97624207
scalar OsgEarthNet.uav[25] utilizationEnergyMaintenance 83393.070588607
scalar OsgEarthNet.uav[25] utilizationEnergyCharge 212984.85449219
scalar OsgEarthNet.uav[25] utilizationEnergyOverdrawMission 0
scalar OsgEarthNet.uav[25] utilizationEnergyOverdrawMaintenance 0
scalar OsgEarthNet.uav[25] utilizationCountMissions 47
scalar OsgEarthNet.uav[25] utilizationCountManeuversMission 463
scalar OsgEarthNet.uav[25] utilizationCountManeuversMaintenance 95
scalar OsgEarthNet.uav[25] utilizationCountChargeState 47
scalar OsgEarthNet.uav[25] utilizationCountOverdrawnAfterMission 0
scalar OsgEarthNet.uav[25] utilizationCountIdleState 48
scalar OsgEarthNet.uav[25] utilizationFail 0
scalar OsgEarthNet.uav[25] simulationTime 259200
scalar OsgEarthNet.uav[26] utilizationSecMission 406.05775011247
scalar OsgEarthNet.uav[26] utilizationSecMaintenance 476.61924102071
scalar OsgEarthNet.uav[26] utilizationSecCharge 3360
scalar OsgEarthNet.uav[26] utilizationSecIdle 254957.32200887
scalar OsgEarthNet.uav[26] utilizationEnergyMission 1894.3129119873
scalar OsgEarthNet.uav[26] utilizationEnergyMaintenance 2170.4662704468
scalar OsgEarthNet.uav[26] utilizationEnergyCharge 4064.7817382812
scalar OsgEarthNet.uav[26] utilizationEnergyOverdrawMission 0
scalar OsgEarthNet.uav[26] utilizationEnergyOverdrawMaintenance 0
scalar OsgEarthNet.uav[26] utilizationCountMissions 1
scalar OsgEarthNet.uav[26] utilizationCountManeuversMission 6
scalar OsgEarthNet.uav[26] utilizationCountManeuversMaintenance 2
scalar OsgEarthNet.uav[26] utilizationCountChargeState 1
scalar OsgEarthNet.uav[26] utilizationCountOverdrawnAfterMission 0
scalar OsgEarthNet.uav[26] utilizationCountIdleState 2
scalar OsgEarthNet.uav[26] utilizationFail 0
scalar OsgEarthNet.uav[26] simulationTime 259200
scalar OsgEarthNet.uav[27] utilizationSecMission 22513.486063921
scalar OsgEarthNet.uav[27] utilizationSecMaintenance 15883.791456468
scalar OsgEarthNet.uav[27] utilizationSecCharge 143250
scalar OsgEarthNet.uav[27] utilizationSecIdle 77552.721479611
scalar OsgEarthNet.uav[27] utilizationEnergyMission 104940.15646362
scalar OsgEarthNet.uav[27] utilizationEnergyMaintenance 74689.438039809
scalar OsgEarthNet.uav[27] utilizationEnergyCharge 180146.97387695
scalar OsgEarthNet.uav[27] utilizationEnergyOverdrawMission 0
scalar OsgEarthNet.uav[27] utilizationEnergyOverdrawMaintenance 0
scalar OsgEarthNet.uav[27] utilizationCountMissions 39
scalar OsgEarthNet.uav[27] utilizationCountManeuversMission 362
scalar OsgEarthNet.uav[27] utilizationCountManeuversMaintenance 79
scalar OsgEarthNet.uav[27] utilizationCountChargeState 39
scalar OsgEarthNet.uav[27] utilizationCountOverdrawnAfterMission 0
scalar OsgEarthNet.uav[27] utilizationCountIdleState 40
scalar OsgEarthNet.uav[27] utilizationFail 0
scalar OsgEarthNet.uav[27] simulationTime 259200
scalar OsgEarthNet.uav[28] utilizationSecMission 29637.535053407
scalar OsgEarthNet.uav[28] utilizationSecMaintenance 19647.887691988
scalar OsgEarthNet.uav[28] utilizationSecCharge 179292.57625461
scalar OsgEarthNet.uav[28] utilizationSecIdle 30622
scalar OsgEarthNet.uav[28] utilizationEnergyMission 136531.54237828
scalar OsgEarthNet.uav[28] utilizationEnergyMaintenance 90978.983085632
scalar OsgEarthNet.uav[28] utilizationEnergyCharge 225235.50964355
scalar OsgEarthNet.uav[28] utilizationEnergyOverdrawMission 0
scalar OsgEarthNet.uav[28] utilizationEnergyOverdrawMaintenance 0
scalar OsgEarthNet.uav[28] utilizationCountMissions 50
scalar OsgEarthNet.uav[28] utilizationCountManeuversMission 484
scalar OsgEarthNet.uav[28] utilizationCountManeuversMaintenance 99
scalar OsgEarthNet.uav[28] utilizationCountChargeState 50
scalar OsgEarthNet.uav[28] utilizationCountOverdrawnAfterMission 0
scalar OsgEarthNet.uav[28] utilizationCountIdleState 50
scalar OsgEarthNet.uav[28] utilizationFail 0
scalar OsgEarthNet.uav[28] simulationTime 259200
scalar OsgEarthNet.uav[29] utilizationSecMission 315.14774216574
scalar OsgEarthNet.uav[29] utilizationSecMaintenance 645.51430388878
scalar OsgEarthNet.uav[29] utilizationSecCharge 3460
scalar OsgEarthNet.uav[29] utilizationSecIdle 254779.33695395
scalar OsgEarthNet.uav[29] utilizationEnergyMission 1511.9458389282
scalar OsgEarthNet.uav[29] utilizationEnergyMaintenance 2736.7766342163
scalar OsgEarthNet.uav[29] utilizationEnergyCharge 4248.7197265625
scalar OsgEarthNet.uav[29] utilizationEnergyOverdrawMission 0
scalar OsgEarthNet.uav[29] utilizationEnergyOverdrawMaintenance 0
scalar OsgEarthNet.uav[29] utilizationCountMissions 1
scalar OsgEarthNet.uav[29] utilizationCountManeuversMission 7
scalar OsgEarthNet.uav[29] utilizationCountManeuversMaintenance 2
scalar OsgEarthNet.uav[29] utilizationCountChargeState 1
scalar OsgEarthNet.uav[29] utilizationCountOverdrawnAfterMission 0
scalar OsgEarthNet.uav[29] utilizationCountIdleState 2
scalar OsgEarthNet.uav[29] utilizationFail 0
scalar OsgEarthNet.uav[29] simulationTime 259200
scalar OsgEarthNet.uav[30] utilizationSecMission 27249.199609005
scalar OsgEarthNet.uav[30] utilizationSecMaintenance 20290.07300322
scalar OsgEarthNet.uav[30] utilizationSecCharge 173458.58657722
scalar OsgEarthNet.uav[30] utilizationSecIdle 38202.139810551
scalar OsgEarthNet.uav[30] utilizationEnergyMission 127033.31332397
scalar OsgEarthNet.uav[30] utilizationEnergyMaintenance 94497.406345367
scalar OsgEarthNet.uav[30] utilizationEnergyCharge 218712.8293457
scalar OsgEarthNet.uav[30] utilizationEnergyOverdrawMission 0
scalar OsgEarthNet.uav[30] utilizationEnergyOverdrawMaintenance 0
scalar OsgEarthNet.uav[30] utilizationCountMissions 48
scalar OsgEarthNet.uav[30] utilizationCountManeuversMission 458
scalar OsgEarthNet.uav[30] utilizationCountManeuversMaintenance 96
scalar OsgEarthNet.uav[30] utilizationCountChargeState 48
scalar OsgEarthNet.uav[30] utilizationCountOverdrawnAfterMission 0
scalar OsgEarthNet.uav[30] utilizationCountIdleState 48
scalar OsgEarthNet.uav[30] utilizationFail 0
scalar OsgEarthNet.uav[30] simulationTime 259200
scalar OsgEarthNet.uav[31] utilizationSecMission 11054.453212284
scalar OsgEarthNet.uav[31] utilizationSecMaintenance 9242.8480309809
scalar OsgEarthNet.uav[31] utilizationSecCharge 75780
scalar OsgEarthNet.uav[31] utilizationSecIdle 163122.69775673
scalar OsgEarthNet.uav[31] utilizationEnergyMission 51356.485244751
scalar OsgEarthNet.uav[31] utilizationEnergyMaintenance 43186.493221283
scalar OsgEarthNet.uav[31] utilizationEnergyCharge 94396.748046875
scalar OsgEarthNet.uav[31] utilizationEnergyOverdrawMission 0
scalar OsgEarthNet.uav[31] utilizationEnergyOverdrawMaintenance 0
scalar OsgEarthNet.uav[31] utilizationCountMissions 21
scalar OsgEarthNet.uav[31] utilizationCountManeuversMission 181
scalar OsgEarthNet.uav[31] utilizationCountManeuversMaintenance 42
scalar OsgEarthNet.uav[31] utilizationCountChargeState 21
scalar OsgEarthNet.uav[31] utilizationCountOverdrawnAfterMission 0
scalar OsgEarthNet.uav[31] utilizationCountIdleState 22
scalar OsgEarthNet.uav[31] utilizationFail 0
scalar OsgEarthNet.uav[31] simulationTime 259200
scalar OsgEarthNet.uav[32] utilizationSecMission 4841.34452595
scalar OsgEarthNet.uav[32] utilizationSecMaintenance 3724.8570247572
scalar OsgEarthNet.uav[32] utilizationSecCharge 32480
scalar OsgEarthNet.uav[32] utilizationSecIdle 218153.79744929
scalar OsgEarthNet.uav[32] utilizationEnergyMission 22647.024665833
scalar OsgEarthNet.uav[32] utilizationEnergyMaintenance 17719.796276093
scalar OsgEarthNet.uav[32] utilizationEnergyCharge 40532.318115234
scalar OsgEarthNet.uav[32] utilizationEnergyOverdrawMission 0
scalar OsgEarthNet.uav[32] utilizationEnergyOverdrawMaintenance 0
scalar OsgEarthNet.uav[32] utilizationCountMissions 9
scalar OsgEarthNet.uav[32] utilizationCountManeuversMission 79
scalar OsgEarthNet.uav[32] utilizationCountManeuversMaintenance 18
scalar OsgEarthNet.uav[32] utilizationCountChargeState 9
scalar OsgEarthNet.uav[32] utilizationCountOverdrawnAfterMission 0
scalar OsgEarthNet.uav[32] utilizationCountIdleState 10
scalar OsgEarthNet.uav[32] utilizationFail 0
scalar OsgEarthNet.uav[32] simulationTime 259200
scalar OsgEarthNet.uav[33] utilizationSecMission 595.61789681617
scalar OsgEarthNet.uav[33] utilizationSecMaintenance 462.68687137477
scalar OsgEarthNet.uav[33] utilizationSecCharge 3820
scalar OsgEarthNet.uav[33] utilizationSecIdle 254321.69423181
scalar OsgEarthNet.uav[33] utilizationEnergyMission 2818.9432525635
scalar OsgEarthNet.uav[33] utilizationEnergyMaintenance 2143.2413139343
scalar OsgEarthNet.uav[33] utilizationEnergyCharge 4846.3803710938
scalar OsgEarthNet.uav[33] utilizationEnergyOverdrawMission 0
scalar OsgEarthNet.uav[33] utilizationEnergyOverdrawMaintenance 0
scalar OsgEarthNet.uav[33] utilizationCountMissions 1
scalar OsgEarthNet.uav[33] utilizationCountManeuversMission 10
scalar OsgEarthNet.uav[33] utilizationCountManeuversMaintenance 2
scalar OsgEarthNet.uav[33] utilizationCountChargeState 1
scalar OsgEarthNet.uav[33] utilizationCountOverdrawnAfterMission 0
scalar OsgEarthNet.uav[33] utilizationCountIdleState 2
scalar OsgEarthNet.uav[33] utilizationFail 0
scalar OsgEarthNet.uav[33] simulationTime 259200
scalar OsgEarthNet.uav[34] utilizationSecMission 27476.200917845
scalar OsgEarthNet.uav[34] utilizationSecMaintenance 19524.165046041
scalar OsgEarthNet.uav[34] utilizationSecCharge 172948.57723215
scalar OsgEarthNet.uav[34] utilizationSecIdle 39251.055803961
scalar OsgEarthNet.uav[34] utilizationEnergyMission 127673.53116608
scalar OsgEarthNet.uav[34] utilizationEnergyMaintenance 89833.861537933
scalar OsgEarthNet.uav[34] utilizationEnergyCharge 216959.94311523
scalar OsgEarthNet.uav[34] utilizationEnergyOverdrawMission 0
scalar OsgEarthNet.uav[34] utilizationEnergyOverdrawMaintenance 0
scalar OsgEarthNet.uav[34] utilizationCountMissions 48
scalar OsgEarthNet.uav[34] utilizationCountManeuversMission 442
scalar OsgEarthNet.uav[34] utilizationCountManeuversMaintenance 96
scalar OsgEarthNet.uav[34] utilizationCountChargeState 48
scalar OsgEarthNet.uav[34] utilizationCountOverdrawnAfterMission 0
scalar OsgEarthNet.uav[34] utilizationCountIdleState 48
scalar OsgEarthNet.uav[34] utilizationFail 0
scalar OsgEarthNet.uav[34] simulationTime 259200
scalar OsgEarthNet.uav[35] utilizationSecMission 17536.666312544
scalar OsgEarthNet.uav[35] utilizationSecMaintenance 10683.290140041
scalar OsgEarthNet.uav[35] utilizationSecCharge 103130
scalar OsgEarthNet.uav[35] utilizationSecIdle 127850.04254741
scalar OsgEarthNet.uav[35] utilizationEnergyMission 82004.608495302
scalar OsgEarthNet.uav[35] utilizationEnergyMaintenance 49640.315578461
scalar OsgEarthNet.uav[35] utilizationEnergyCharge 129869.79833984
scalar OsgEarthNet.uav[35] utilizationEnergyOverdrawMission 0
scalar OsgEarthNet.uav[35] utilizationEnergyOverdrawMaintenance 0
scalar OsgEarthNet.uav[35] utilizationCountMissions 28
scalar OsgEarthNet.uav[35] utilizationCountManeuversMission 283
scalar OsgEarthNet.uav[35] utilizationCountManeuversMaintenance 57
scalar OsgEarthNet.uav[35] utilizationCountChargeState 28
scalar OsgEarthNet.uav[35] utilizationCountOverdrawnAfterMission 0
scalar OsgEarthNet.uav[35] utilizationCountIdleState 29
scalar OsgEarthNet.uav[35] utilizationFail 0
scalar OsgEarthNet.uav[35] simulationTime 259200
scalar OsgEarthNet.uav[36] utilizationSecMission 27437.531870771
scalar OsgEarthNet.uav[36] utilizationSecMaintenance 17914.947894476
scalar OsgEarthNet.uav[36] utilizationSecCharge 165022.87481542
scalar OsgEarthNet.uav[36] utilizationSecIdle 48824.64441933
scalar OsgEarthNet.uav[36] utilizationEnergyMission 127937.36705017
scalar OsgEarthNet.uav[36] utilizationEnergyMaintenance 81739.51115036
scalar OsgEarthNet.uav[36] utilizationEnergyCharge 207770.32788086
scalar OsgEarthNet.uav[36] utilizationEnergyOverdrawMission 0
scalar OsgEarthNet.uav[36] utilizationEnergyOverdrawMaintenance 0
scalar OsgEarthNet.uav[36] utilizationCountMissions 46
scalar OsgEarthNet.uav[36] utilizationCountManeuversMission 449
scalar OsgEarthNet.uav[36] utilizationCountManeuversMaintenance 92
scalar OsgEarthNet.uav[36] utilizationCountChargeState 46
scalar OsgEarthNet.uav[36] utilizationCountOverdrawnAfterMission 0
scalar OsgEarthNet.uav[36] utilizationCountIdleState 46
scalar OsgEarthNet.uav[36] utilizationFail 0
scalar OsgEarthNet.uav[36] simulationTime 259200
scalar OsgEarthNet.uav[37] utilizationSecMission 20294.413785101
scalar OsgEarthNet.uav[37] utilizationSecMaintenance 15040.696036588
scalar OsgEarthNet.uav[37] utilizationSecCharge 128678.54295638
scalar OsgEarthNet.uav[37] utilizationSecIdle 95186.346221928
scalar OsgEarthNet.uav[37] utilizationEnergyMission 93805.857048035
scalar OsgEarthNet.uav[37] utilizationEnergyMaintenance 69595.161636353
scalar OsgEarthNet.uav[37] utilizationEnergyCharge 161807.63037109
scalar OsgEarthNet.uav[37] utilizationEnergyOverdrawMission 0
scalar OsgEarthNet.uav[37] utilizationEnergyOverdrawMaintenance 0
scalar OsgEarthNet.uav[37] utilizationCountMissions 36
scalar OsgEarthNet.uav[37] utilizationCountManeuversMission 337
scalar OsgEarthNet.uav[37] utilizationCountManeuversMaintenance 72
scalar OsgEarthNet.uav[37] utilizationCountChargeState 36
scalar OsgEarthNet.uav[37] utilizationCountOverdrawnAfterMission 0
scalar OsgEarthNet.uav[37] utilizationCountIdleState 36
scalar OsgEarthNet.uav[37] utilizationFail 0
scalar OsgEarthNet.uav[37] simulationTime 259200
scalar OsgEarthNet.uav[38] utilizationSecMission 27471.157507284
scalar OsgEarthNet.uav[38] utilizationSecMaintenance 15940.383966588
scalar OsgEarthNet.uav[38] utilizationSecCharge 160314.9321971
scalar OsgEarthNet.uav[38] utilizationSecIdle 55473.525329029
scalar OsgEarthNet.uav[38] utilizationEnergyMission 128382.99459457
scalar OsgEarthNet.uav[38] utilizationEnergyMaintenance 74316.937988281
scalar OsgEarthNet.uav[38] utilizationEnergyCharge 202529.30541992
scalar OsgEarthNet.uav[38] utilizationEnergyOverdrawMission 0
scalar OsgEarthNet.uav[38] utilizationEnergyOverdrawMaintenance 0
scalar OsgEarthNet.uav[38] utilizationCountMissions 44
scalar OsgEarthNet.uav[38] utilizationCountManeuversMission 458
scalar OsgEarthNet.uav[38] utilizationCountManeuversMaintenance 88
scalar OsgEarthNet.uav[38] utilizationCountChargeState 44
scalar OsgEarthNet.uav[38] utilizationCountOverdrawnAfterMission 0
scalar OsgEarthNet.uav[38] utilizationCountIdleState 44
scalar OsgEarthNet.uav[38] utilizationFail 0
scalar OsgEarthNet.uav[38] simulationTime 259200
scalar OsgEarthNet.uav[39] utilizationSecMission 1918.2572150888
scalar OsgEarthNet.uav[39] utilizationSecMaintenance 2017.1001124747
scalar OsgEarthNet.uav[39] utilizationSecCharge 14630
scalar OsgEarthNet.uav[39] utilizationSecIdle 240634.64167244
scalar OsgEarthNet.uav[39] utilizationEnergyMission 8863.7587890625
scalar OsgEarthNet.uav[39] utilizationEnergyMaintenance 9483.3829917908
scalar OsgEarthNet.uav[39] utilizationEnergyCharge 18347.141113281
scalar OsgEarthNet.uav[39] utilizationEnergyOverdrawMission 0
scalar OsgEarthNet.uav[39] utilizationEnergyOverdrawMaintenance 0
scalar OsgEarthNet.uav[39] utilizationCountMissions 4
scalar OsgEarthNet.uav[39] utilizationCountManeuversMission 32
scalar OsgEarthNet.uav[39] utilizationCountManeuversMaintenance 8
scalar OsgEarthNet.uav[39] utilizationCountChargeState 4
scalar OsgEarthNet.uav[39] utilizationCountOverdrawnAfterMission 0
scalar OsgEarthNet.uav[39] utilizationCountIdleState 5
scalar OsgEarthNet.uav[39] utilizationFail 0
scalar OsgEarthNet.uav[39] simulationTime 259200
scalar OsgEarthNet.uav[40] utilizationSecMission 24101.559297251
scalar OsgEarthNet.uav[40] utilizationSecMaintenance 14672.222757231
scalar OsgEarthNet.uav[40] utilizationSecCharge 140968.42783708
scalar OsgEarthNet.uav[40] utilizationSecIdle 79457.789108439
scalar OsgEarthNet.uav[40] utilizationEnergyMission 110970.90085602
scalar OsgEarthNet.uav[40] utilizationEnergyMaintenance 68479.138553619
scalar OsgEarthNet.uav[40] utilizationEnergyCharge 176513.78417969
scalar OsgEarthNet.uav[40] utilizationEnergyOverdrawMission 0
scalar OsgEarthNet.uav[40] utilizationEnergyOverdrawMaintenance 0
scalar OsgEarthNet.uav[40] utilizationCountMissions 40
scalar OsgEarthNet.uav[40] utilizationCountManeuversMission 390
scalar OsgEarthNet.uav[40] utilizationCountManeuversMaintenance 80
scalar OsgEarthNet.uav[40] utilizationCountChargeState 40
scalar OsgEarthNet.uav[40] utilizationCountOverdrawnAfterMission 0
scalar OsgEarthNet.uav[40] utilizationCountIdleState 40
scalar OsgEarthNet.uav[40] utilizationFail 0
scalar OsgEarthNet.uav[40] simulationTime 259200
scalar OsgEarthNet.uav[41] utilizationSecMission 19878.341814642
scalar OsgEarthNet.uav[41] utilizationSecMaintenance 12843.288341851
scalar OsgEarthNet.uav[41] utilizationSecCharge 120680
scalar OsgEarthNet.uav[41] utilizationSecIdle 105798.36884351
scalar OsgEarthNet.uav[41] utilizationEnergyMission 91571.10912323
scalar OsgEarthNet.uav[41] utilizationEnergyMaintenance 59766.184429169
scalar OsgEarthNet.uav[41] utilizationEnergyCharge 151511.92163086
scalar OsgEarthNet.uav[41] utilizationEnergyOverdrawMission 0
scalar OsgEarthNet.uav[41] utilizationEnergyOverdrawMaintenance 0
scalar OsgEarthNet.uav[41] utilizationCountMissions 33
scalar OsgEarthNet.uav[41] utilizationCountManeuversMission 322
scalar OsgEarthNet.uav[41] utilizationCountManeuversMaintenance 66
scalar OsgEarthNet.uav[41] utilizationCountChargeState 33
scalar OsgEarthNet.uav[41] utilizationCountOverdrawnAfterMission 0
scalar OsgEarthNet.uav[41] utilizationCountIdleState 34
scalar OsgEarthNet.uav[41] utilizationFail 0
scalar OsgEarthNet.uav[41] simulationTime 259200
scalar OsgEarthNet.uav[42] utilizationSecMission 29036.260086177
scalar OsgEarthNet.uav[42] utilizationSecMaintenance 19263.052393918
scalar OsgEarthNet.uav[42] utilizationSecCharge 176771.46690599
scalar OsgEarthNet.uav[42] utilizationSecIdle 34129.219613916
scalar OsgEarthNet.uav[42] utilizationEnergyMission 134307.39434814
scalar OsgEarthNet.uav[42] utilizationEnergyMaintenance 88953.170162201
scalar OsgEarthNet.uav[42] utilizationEnergyCharge 222287.73388672
scalar OsgEarthNet.uav[42] utilizationEnergyOverdrawMission 0
scalar OsgEarthNet.uav[42] utilizationEnergyOverdrawMaintenance 0
scalar OsgEarthNet.uav[42] utilizationCountMissions 49
scalar OsgEarthNet.uav[42] utilizationCountManeuversMission 475
scalar OsgEarthNet.uav[42] utilizationCountManeuversMaintenance 98
scalar OsgEarthNet.uav[42] utilizationCountChargeState 49
scalar OsgEarthNet.uav[42] utilizationCountOverdrawnAfterMission 0
scalar OsgEarthNet.uav[42] utilizationCountIdleState 49
scalar OsgEarthNet.uav[42] utilizationFail 0
scalar OsgEarthNet.uav[42] simulationTime 259200
scalar OsgEarthNet.uav[43] utilizationSecMission 12094.636573467
scalar OsgEarthNet.uav[43] utilizationSecMaintenance 10844.876848977
scalar OsgEarthNet.uav[43] utilizationSecCharge 84100
scalar OsgEarthNet.uav[43] utilizationSecIdle 152160.48557756
scalar OsgEarthNet.uav[43] utilizationEnergyMission 56078.51285553
scalar OsgEarthNet.uav[43] utilizationEnergyMaintenance 50054.152019501
scalar OsgEarthNet.uav[43] utilizationEnergyCharge 106023.67333984
scalar OsgEarthNet.uav[43] utilizationEnergyOverdrawMission 0
scalar OsgEarthNet.uav[43] utilizationEnergyOverdrawMaintenance 0
scalar OsgEarthNet.uav[43] utilizationCountMissions 23
scalar OsgEarthNet.uav[43] utilizationCountManeuversMission 196
scalar OsgEarthNet.uav[43] utilizationCountManeuversMaintenance 46
scalar OsgEarthNet.uav[43] utilizationCountChargeState 23
scalar OsgEarthNet.uav[43] utilizationCountOverdrawnAfterMission 0
scalar OsgEarthNet.uav[43] utilizationCountIdleState 22
scalar OsgEarthNet.uav[43] utilizationFail 0
scalar OsgEarthNet.uav[43] simulationTime 259200
scalar OsgEarthNet.uav[44] utilizationSecMission 27778.264173147
scalar OsgEarthNet.uav[44] utilizationSecMaintenance 20214.13851772
scalar OsgEarthNet.uav[44] utilizationSecCharge 177049.24370187
scalar OsgEarthNet.uav[44] utilizationSecIdle 34158.352607263
scalar OsgEarthNet.uav[44] utilizationEnergyMission 128172.67329788
scalar OsgEarthNet.uav[44] utilizationEnergyMaintenance 94266.101558685
scalar OsgEarthNet.uav[44] utilizationEnergyCharge 221385.12524414
scalar OsgEarthNet.uav[44] utilizationEnergyOverdrawMission 0
scalar OsgEarthNet.uav[44] utilizationEnergyOverdrawMaintenance 0
scalar OsgEarthNet.uav[44] utilizationCountMissions 49
scalar OsgEarthNet.uav[44] utilizationCountManeuversMission 452
scalar OsgEarthNet.uav[44] utilizationCountManeuversMaintenance 98
scalar OsgEarthNet.uav[44] utilizationCountChargeState 49
scalar OsgEarthNet.uav[44] utilizationCountOverdrawnAfterMission 0
scalar OsgEarthNet.uav[44] utilizationCountIdleState 49
scalar OsgEarthNet.uav[44] utilizationFail 0
scalar OsgEarthNet.uav[44] simulationTime 259200
scalar OsgEarthNet.uav[45] utilizationSecMission 27348.069879659
scalar OsgEarthNet.uav[45] utilizationSecMaintenance 15590.943228062
scalar OsgEarthNet.uav[45] utilizationSecCharge 158400
scalar OsgEarthNet.uav[45] utilizationSecIdle 57860.98589228
scalar OsgEarthNet.uav[45] utilizationEnergyMission 127503.65055847
scalar OsgEarthNet.uav[45] utilizationEnergyMaintenance 72484.880016327
scalar OsgEarthNet.uav[45] utilizationEnergyCharge 199515.35961914
scalar OsgEarthNet.uav[45] utilizationEnergyOverdrawMission 0
scalar OsgEarthNet.uav[45] utilizationEnergyOverdrawMaintenance 0
scalar OsgEarthNet.uav[45] utilizationCountMissions 43
scalar OsgEarthNet.uav[45] utilizationCountManeuversMission 430
scalar OsgEarthNet.uav[45] utilizationCountManeuversMaintenance 86
scalar OsgEarthNet.uav[45] utilizationCountChargeState 43
scalar OsgEarthNet.uav[45] utilizationCountOverdrawnAfterMission 0
scalar OsgEarthNet.uav[45] utilizationCountIdleState 43
scalar OsgEarthNet.uav[45] utilizationFail 0
scalar OsgEarthNet.uav[45] simulationTime 259200
scalar OsgEarthNet.uav[46] utilizationSecMission 20589.755172938
scalar OsgEarthNet.uav[46] utilizationSecMaintenance 17547.242354243
scalar OsgEarthNet.uav[46] utilizationSecCharge 141400
scalar OsgEarthNet.uav[46] utilizationSecIdle 79663.001472819
scalar OsgEarthNet.uav[46] utilizationEnergyMission 96594.162166595
scalar OsgEarthNet.uav[46] utilizationEnergyMaintenance 81334.602233887
scalar OsgEarthNet.uav[46] utilizationEnergyCharge 177542.60791016
scalar OsgEarthNet.uav[46] utilizationEnergyOverdrawMission 0
scalar OsgEarthNet.uav[46] utilizationEnergyOverdrawMaintenance 0
scalar OsgEarthNet.uav[46] utilizationCountMissions 39
scalar OsgEarthNet.uav[46] utilizationCountManeuversMission 334
scalar OsgEarthNet.uav[46] utilizationCountManeuversMaintenance 78
scalar OsgEarthNet.uav[46] utilizationCountChargeState 39
scalar OsgEarthNet.uav[46] utilizationCountOverdrawnAfterMission 0
scalar OsgEarthNet.uav[46] utilizationCountIdleState 39
scalar OsgEarthNet.uav[46] utilizationFail 0
scalar OsgEarthNet.uav[46] simulationTime 259200
scalar OsgEarthNet.uav[47] utilizationSecMission 29385.236712253
scalar OsgEarthNet.uav[47] utilizationSecMaintenance 18223.220350052
scalar OsgEarthNet.uav[47] utilizationSecCharge 171969.45473641
scalar OsgEarthNet.uav[47] utilizationSecIdle 39622.087201284
scalar OsgEarthNet.uav[47] utilizationEnergyMission 135423.60089111
scalar OsgEarthNet.uav[47] utilizationEnergyMaintenance 84791.67583847
scalar OsgEarthNet.uav[47] utilizationEnergyCharge 216315.72583008
scalar OsgEarthNet.uav[47] utilizationEnergyOverdrawMission 0
scalar OsgEarthNet.uav[47] utilizationEnergyOverdrawMaintenance 0.34811019897461
scalar OsgEarthNet.uav[47] utilizationCountMissions 48
scalar OsgEarthNet.uav[47] utilizationCountManeuversMission 488
scalar OsgEarthNet.uav[47] utilizationCountManeuversMaintenance 96
scalar OsgEarthNet.uav[47] utilizationCountChargeState 48
scalar OsgEarthNet.uav[47] utilizationCountOverdrawnAfterMission 1
scalar OsgEarthNet.uav[47] utilizationCountIdleState 47
scalar OsgEarthNet.uav[47] utilizationFail 0
scalar OsgEarthNet.uav[47] simulationTime 259200
scalar OsgEarthNet.uav[48] utilizationSecMission 26368.745974548
scalar OsgEarthNet.uav[48] utilizationSecMaintenance 18814.902806834
scalar OsgEarthNet.uav[48] utilizationSecCharge 163910
scalar OsgEarthNet.uav[48] utilizationSecIdle 50106.350218618
scalar OsgEarthNet.uav[48] utilizationEnergyMission 123357.2457483
scalar OsgEarthNet.uav[48] utilizationEnergyMaintenance 86813.626899719
scalar OsgEarthNet.uav[48] utilizationEnergyCharge 206474.44506836
scalar OsgEarthNet.uav[48] utilizationEnergyOverdrawMission 0
scalar OsgEarthNet.uav[48] utilizationEnergyOverdrawMaintenance 0
scalar OsgEarthNet.uav[48] utilizationCountMissions 45
scalar OsgEarthNet.uav[48] utilizationCountManeuversMission 436
scalar OsgEarthNet.uav[48] utilizationCountManeuversMaintenance 91
scalar OsgEarthNet.uav[48] utilizationCountChargeState 45
scalar OsgEarthNet.uav[48] utilizationCountOverdrawnAfterMission 0
scalar OsgEarthNet.uav[48] utilizationCountIdleState 44
scalar OsgEarthNet.uav[48] utilizationFail 0
scalar OsgEarthNet.uav[48] simulationTime 259200
scalar OsgEarthNet.uav[49] utilizationSecMission 26116.452221056
scalar OsgEarthNet.uav[49] utilizationSecMaintenance 19710.069259323
scalar OsgEarthNet.uav[49] utilizationSecCharge 167189.04343929
scalar OsgEarthNet.uav[49] utilizationSecIdle 46184.43408033
scalar OsgEarthNet.uav[49] utilizationEnergyMission 121265.52513123
scalar OsgEarthNet.uav[49] utilizationEnergyMaintenance 90105.138580322
scalar OsgEarthNet.uav[49] utilizationEnergyCharge 209827.75097656
scalar OsgEarthNet.uav[49] utilizationEnergyOverdrawMission 0
scalar OsgEarthNet.uav[49] utilizationEnergyOverdrawMaintenance 0
scalar OsgEarthNet.uav[49] utilizationCountMissions 47
scalar OsgEarthNet.uav[49] utilizationCountManeuversMission 427
scalar OsgEarthNet.uav[49] utilizationCountManeuversMaintenance 94
scalar OsgEarthNet.uav[49] utilizationCountChargeState 47
scalar OsgEarthNet.uav[49] utilizationCountOverdrawnAfterMission 0
scalar OsgEarthNet.uav[49] utilizationCountIdleState 45
scalar OsgEarthNet.uav[49] utilizationFail 0
scalar OsgEarthNet.uav[49] simulationTime 259200
scalar OsgEarthNet.uav[50] utilizationSecMission 25508.384373904
scalar OsgEarthNet.uav[50] utilizationSecMaintenance 20880.436297338
scalar OsgEarthNet.uav[50] utilizationSecCharge 168495.28160504
scalar OsgEarthNet.uav[50] utilizationSecIdle 44315.896723719
scalar OsgEarthNet.uav[50] utilizationEnergyMission 116571.02524948
scalar OsgEarthNet.uav[50] utilizationEnergyMaintenance 96269.043777466
scalar OsgEarthNet.uav[50] utilizationEnergyCharge 212689.05908203
scalar OsgEarthNet.uav[50] utilizationEnergyOverdrawMission 0
scalar OsgEarthNet.uav[50] utilizationEnergyOverdrawMaintenance 0
scalar OsgEarthNet.uav[50] utilizationCountMissions 47
scalar OsgEarthNet.uav[50] utilizationCountManeuversMission 416
scalar OsgEarthNet.uav[50] utilizationCountManeuversMaintenance 94
scalar OsgEarthNet.uav[50] utilizationCountChargeState 47
scalar OsgEarthNet.uav[50] utilizationCountOverdrawnAfterMission 0
scalar OsgEarthNet.uav[50] utilizationCountIdleState 41
scalar OsgEarthNet.uav[50] utilizationFail 0
scalar OsgEarthNet.uav[50] simulationTime 259200
scalar OsgEarthNet.uav[51] utilizationSecMission 30069.894476351
scalar OsgEarthNet.uav[51] utilizationSecMaintenance 20068.563928109
scalar OsgEarthNet.uav[51] utilizationSecCharge 180984.85978765
scalar OsgEarthNet.uav[51] utilizationSecIdle 28076.680807888
scalar OsgEarthNet.uav[51] utilizationEnergyMission 138060.22490692
scalar OsgEarthNet.uav[51] utilizationEnergyMaintenance 92888.065010071
scalar OsgEarthNet.uav[51] utilizationEnergyCharge 229497.00610352
scalar OsgEarthNet.uav[51] utilizationEnergyOverdrawMission 0
scalar OsgEarthNet.uav[51] utilizationEnergyOverdrawMaintenance 0
scalar OsgEarthNet.uav[51] utilizationCountMissions 50
scalar OsgEarthNet.uav[51] utilizationCountManeuversMission 489
scalar OsgEarthNet.uav[51] utilizationCountManeuversMaintenance 100
scalar OsgEarthNet.uav[51] utilizationCountChargeState 50
scalar OsgEarthNet.uav[51] utilizationCountOverdrawnAfterMission 0
scalar OsgEarthNet.uav[51] utilizationCountIdleState 45
scalar OsgEarthNet.uav[51] utilizationFail 0
scalar OsgEarthNet.uav[51] simulationTime 259200
scalar OsgEarthNet.uav[52] utilizationSecMission 28899.924888005
scalar OsgEarthNet.uav[52] utilizationSecMaintenance 20663.468301029
scalar OsgEarthNet.uav[52] utilizationSecCharge 180159.15554693
scalar OsgEarthNet.uav[52] utilizationSecIdle 29477.450264031
scalar OsgEarthNet.uav[52] utilizationEnergyMission 132627.10591888
scalar OsgEarthNet.uav[52] utilizationEnergyMaintenance 95846.592685699
scalar OsgEarthNet.uav[52] utilizationEnergyCharge 228089.26391602
scalar OsgEarthNet.uav[52] utilizationEnergyOverdrawMission 0
scalar OsgEarthNet.uav[52] utilizationEnergyOverdrawMaintenance 0
scalar OsgEarthNet.uav[52] utilizationCountMissions 50
scalar OsgEarthNet.uav[52] utilizationCountManeuversMission 468
scalar OsgEarthNet.uav[52] utilizationCountManeuversMaintenance 100
scalar OsgEarthNet.uav[52] utilizationCountChargeState 50
scalar OsgEarthNet.uav[52] utilizationCountOverdrawnAfterMission 0
scalar OsgEarthNet.uav[52] utilizationCountIdleState 41
scalar OsgEarthNet.uav[52] utilizationFail 0
scalar OsgEarthNet.uav[52] simulationTime 259200
scalar OsgEarthNet.uav[53] utilizationSecMission 28678.728453493
scalar OsgEarthNet.uav[53] utilizationSecMaintenance 21882.705387402
scalar OsgEarthNet.uav[53] utilizationSecCharge 184183.29458758
scalar OsgEarthNet.uav[53] utilizationSecIdle 24455.270571525
scalar OsgEarthNet.uav[53] utilizationEnergyMission 132935.82541656
scalar OsgEarthNet.uav[53] utilizationEnergyMaintenance 101348.30867386
scalar OsgEarthNet.uav[53] utilizationEnergyCharge 233863.63623047
scalar OsgEarthNet.uav[53] utilizationEnergyOverdrawMission 0
scalar OsgEarthNet.uav[53] utilizationEnergyOverdrawMaintenance 0
scalar OsgEarthNet.uav[53] utilizationCountMissions 51
scalar OsgEarthNet.uav[53] utilizationCountManeuversMission 469
scalar OsgEarthNet.uav[53] utilizationCountManeuversMaintenance 102
scalar OsgEarthNet.uav[53] utilizationCountChargeState 51
scalar OsgEarthNet.uav[53] utilizationCountOverdrawnAfterMission 0
scalar OsgEarthNet.uav[53] utilizationCountIdleState 38
scalar OsgEarthNet.uav[53] utilizationFail 0
scalar OsgEarthNet.uav[53] simulationTime 259200
scalar OsgEarthNet.uav[54] utilizationSecMission 30856.907198318
scalar OsgEarthNet.uav[54] utilizationSecMaintenance 19179.484444688
scalar OsgEarthNet.uav[54] utilizationSecCharge 183958.99546748
scalar OsgEarthNet.uav[54] utilizationSecIdle 25204.611889516
scalar OsgEarthNet.uav[54] utilizationEnergyMission 142821.25587845
scalar OsgEarthNet.uav[54] utilizationEnergyMaintenance 89211.649887085
scalar OsgEarthNet.uav[54] utilizationEnergyCharge 232077.63452148
scalar OsgEarthNet.uav[54] utilizationEnergyOverdrawMission 0
scalar OsgEarthNet.uav[54] utilizationEnergyOverdrawMaintenance 0
scalar OsgEarthNet.uav[54] utilizationCountMissions 51
scalar OsgEarthNet.uav[54] utilizationCountManeuversMission 503
scalar OsgEarthNet.uav[54] utilizationCountManeuversMaintenance 102
scalar OsgEarthNet.uav[54] utilizationCountChargeState 51
scalar OsgEarthNet.uav[54] utilizationCountOverdrawnAfterMission 0
scalar OsgEarthNet.uav[54] utilizationCountIdleState 43
scalar OsgEarthNet.uav[54] utilizationFail 0
scalar OsgEarthNet.uav[54] simulationTime 259200
scalar OsgEarthNet.uav[55] utilizationSecMission 30848.58746808
scalar OsgEarthNet.uav[55] utilizationSecMaintenance 21665.684566344
scalar OsgEarthNet.uav[55] utilizationSecCharge 188623.72696558
scalar OsgEarthNet.uav[55] utilizationSecIdle 18062
scalar OsgEarthNet.uav[55] utilizationEnergyMission 142652.81311467
scalar OsgEarthNet.uav[55] utilizationEnergyMaintenance 99410.886650085
scalar OsgEarthNet.uav[55] utilizationEnergyCharge 237618.81115723
scalar OsgEarthNet.uav[55] utilizationEnergyOverdrawMission 0
scalar OsgEarthNet.uav[55] utilizationEnergyOverdrawMaintenance 0
scalar OsgEarthNet.uav[55] utilizationCountMissions 53
scalar OsgEarthNet.uav[55] utilizationCountManeuversMission 505
scalar OsgEarthNet.uav[55] utilizationCountManeuversMaintenance 105
scalar OsgEarthNet.uav[55] utilizationCountChargeState 53
scalar OsgEarthNet.uav[55] utilizationCountOverdrawnAfterMission 0
scalar OsgEarthNet.uav[55] utilizationCountIdleState 45
scalar OsgEarthNet.uav[55] utilizationFail 0
scalar OsgEarthNet.uav[55] simulationTime 259200
scalar OsgEarthNet.uav[56] utilizationSecMission 28618.612438817
scalar OsgEarthNet.uav[56] utilizationSecMaintenance 21203.61138088
scalar OsgEarthNet.uav[56] utilizationSecCharge 180390
scalar OsgEarthNet.uav[56] utilizationSecIdle 28987.775180303
scalar OsgEarthNet.uav[56] utilizationEnergyMission 133470.03770868
scalar OsgEarthNet.uav[56] utilizationEnergyMaintenance 97824.454395294
scalar OsgEarthNet.uav[56] utilizationEnergyCharge 227684.77612305
scalar OsgEarthNet.uav[56] utilizationEnergyOverdrawMission 0
scalar OsgEarthNet.uav[56] utilizationEnergyOverdrawMaintenance 0
scalar OsgEarthNet.uav[56] utilizationCountMissions 50
scalar OsgEarthNet.uav[56] utilizationCountManeuversMission 461
scalar OsgEarthNet.uav[56] utilizationCountManeuversMaintenance 101
scalar OsgEarthNet.uav[56] utilizationCountChargeState 50
scalar OsgEarthNet.uav[56] utilizationCountOverdrawnAfterMission 0
scalar OsgEarthNet.uav[56] utilizationCountIdleState 44
scalar OsgEarthNet.uav[56] utilizationFail 0
scalar OsgEarthNet.uav[56] simulationTime 259200
scalar OsgEarthNet.uav[57] utilizationSecMission 30082.113621809
scalar OsgEarthNet.uav[57] utilizationSecMaintenance 20860.570291976
scalar OsgEarthNet.uav[57] utilizationSecCharge 186620
scalar OsgEarthNet.uav[57] utilizationSecIdle 21637.315086215
scalar OsgEarthNet.uav[57] utilizationEnergyMission 139044.2432785
scalar OsgEarthNet.uav[57] utilizationEnergyMaintenance 97246.440696179
scalar OsgEarthNet.uav[57] utilizationEnergyCharge 234760.01342773
scalar OsgEarthNet.uav[57] utilizationEnergyOverdrawMission 0
scalar OsgEarthNet.uav[57] utilizationEnergyOverdrawMaintenance 0
scalar OsgEarthNet.uav[57] utilizationCountMissions 52
scalar OsgEarthNet.uav[57] utilizationCountManeuversMission 493
scalar OsgEarthNet.uav[57] utilizationCountManeuversMaintenance 105
scalar OsgEarthNet.uav[57] utilizationCountChargeState 52
scalar OsgEarthNet.uav[57] utilizationCountOverdrawnAfterMission 0
scalar OsgEarthNet.uav[57] utilizationCountIdleState 44
scalar OsgEarthNet.uav[57] utilizationFail 0
scalar OsgEarthNet.uav[57] simulationTime 259200
scalar OsgEarthNet.uav[58] utilizationSecMission 28200.227941876
scalar OsgEarthNet.uav[58] utilizationSecMaintenance 24999.406294882
scalar OsgEarthNet.uav[58] utilizationSecCharge 193429.6643238
scalar OsgEarthNet.uav[58] utilizationSecIdle 12570.70043944
scalar OsgEarthNet.uav[58] utilizationEnergyMission 131121.08585358
scalar OsgEarthNet.uav[58] utilizationEnergyMaintenance 115454.72740555
scalar OsgEarthNet.uav[58] utilizationEnergyCharge 244342.71459961
scalar OsgEarthNet.uav[58] utilizationEnergyOverdrawMission 0
scalar OsgEarthNet.uav[58] utilizationEnergyOverdrawMaintenance 0
scalar OsgEarthNet.uav[58] utilizationCountMissions 55
scalar OsgEarthNet.uav[58] utilizationCountManeuversMission 463
scalar OsgEarthNet.uav[58] utilizationCountManeuversMaintenance 110
scalar OsgEarthNet.uav[58] utilizationCountChargeState 55
scalar OsgEarthNet.uav[58] utilizationCountOverdrawnAfterMission 0
scalar OsgEarthNet.uav[58] utilizationCountIdleState 40
scalar OsgEarthNet.uav[58] utilizationFail 0
scalar OsgEarthNet.uav[58] simulationTime 259200
scalar OsgEarthNet.uav[59] utilizationSecMission 30646.802292094
scalar OsgEarthNet.uav[59] utilizationSecMaintenance 23600.95620542
scalar OsgEarthNet.uav[59] utilizationSecCharge 194310.24050249
scalar OsgEarthNet.uav[59] utilizationSecIdle 10642
scalar OsgEarthNet.uav[59] utilizationEnergyMission 140869.11721802
scalar OsgEarthNet.uav[59] utilizationEnergyMaintenance 110002.23996353
scalar OsgEarthNet.uav[59] utilizationEnergyCharge 246485.35980225
scalar OsgEarthNet.uav[59] utilizationEnergyOverdrawMission 0
scalar OsgEarthNet.uav[59] utilizationEnergyOverdrawMaintenance 0
scalar OsgEarthNet.uav[59] utilizationCountMissions 56
scalar OsgEarthNet.uav[59] utilizationCountManeuversMission 492
scalar OsgEarthNet.uav[59] utilizationCountManeuversMaintenance 111
scalar OsgEarthNet.uav[59] utilizationCountChargeState 56
scalar OsgEarthNet.uav[59] utilizationCountOverdrawnAfterMission 0
scalar OsgEarthNet.uav[59] utilizationCountIdleState 34
scalar OsgEarthNet.uav[59] utilizationFail 0
scalar OsgEarthNet.uav[59] simulationTime 259200
scalar OsgEarthNet.cs[0] usedPower 2172785.0148602
scalar OsgEarthNet.cs[0] chargedPower 2172785.0148602
scalar OsgEarthNet.cs[0] chargedMobileNodes 443
scalar OsgEarthNet.cs[0] reservations 484
scalar OsgEarthNet.cs[1] usedPower 2882424.3325803
scalar OsgEarthNet.cs[1] chargedPower 2882424.3325803
scalar OsgEarthNet.cs[1] chargedMobileNodes 587
scalar OsgEarthNet.cs[1] reservations 626
scalar OsgEarthNet.cs[2] usedPower 4885942.5620779
scalar OsgEarthNet.cs[2] chargedPower 4885942.5620779
scalar OsgEarthNet.cs[2] chargedMobileNodes 1019
scalar OsgEarthNet.cs[2] reservations 1081

