version 2
run Szenario_Hotel_Gabelbach-29-20180710-11:42:53-49456
attr configname Szenario_Hotel_Gabelbach
attr datetime 20180710-11:42:53
attr experiment Szenario_Hotel_Gabelbach
attr inifile omnetpp.ini
attr iterationvars "$numUAVs=45, $replM=0"
attr iterationvarsf numUAVs=45,replM=0-
attr measurement "$numUAVs=45, $replM=0"
attr network OsgEarthNet
attr processid 49456
attr repetition 13
attr replication #13
attr resultdir results
attr runnumber 29
attr seedset 29
itervar numUAVs 45
itervar replM 0
param *.osgEarthScene.scene "\"Szenario_Hotel_Gabelbach.earth\""
param *.playgroundLatitude 50.6830269
param *.playgroundLongitude 10.8538055
param *.playgroundWidth 3500m
param *.playgroundHeight 3500m
param *.numCSs 3
param *.cs[0].posX 3537m
param *.cs[0].posY 965m
param *.cs[0].posZ 538m
param *.cs[1].posX 312m
param *.cs[1].posY 1262m
param *.cs[1].posZ 539m
param *.cs[2].posX 2185m
param *.cs[2].posY 3026m
param *.cs[2].posZ 777m
param *.cs[3].posX 10m
param *.cs[3].posY 2200m
param *.cs[3].posZ 560m
param *.cs[4].posX 750m
param *.cs[4].posY 200m
param *.cs[4].posZ 540m
param *.cs[5].posX 2450m
param *.cs[5].posY 180m
param *.cs[5].posZ 524m
param *.cs[6].posX 3140m
param *.cs[6].posY 1790m
param *.cs[6].posZ 606m
param *.numUAVs 45
param *.uav[*].replacementMethod 0
param *.*.timeStep 10s
param *.uav[*].commandPreviewCommandCount 20
param *.missionControl.missionFiles "\"missions\\\\Szenario_WB_Hotel_Gabelbach_Mission_Hotel.waypoints,missions\\\\Szenario_WB_Hotel_Gabelbach_Mission_Kickelhahn.waypoints,missions\\\\Szenario_WB_Hotel_Gabelbach_Mission_Ilmenau_Sportplatz.waypoints,missions\\\\Szenario_WB_Hotel_Gabelbach_Mission_Manebach_Mitte.waypoints,missions\\\\Szenario_WB_Hotel_Gabelbach_Mission_Manebach_Sued.waypoints\""
param *.missionControl.missionFiles "\"missions\\\\Szenario_WB_Hotel_Gabelbach_Mission_Hotel.waypoints,missions\\\\Szenario_WB_Hotel_Gabelbach_Mission_Kickelhahn.waypoints,missions\\\\Szenario_WB_Hotel_Gabelbach_Mission_Ilmenau_Sportplatz.waypoints,missions\\\\Szenario_WB_Hotel_Gabelbach_Mission_Manebach_Mitte.waypoints,missions\\\\Szenario_WB_Hotel_Gabelbach_Mission_Manebach_Sued.waypoints,missions\\\\Szenario_WB_Hotel_Gabelbach_Hover_HoheSchlaufe.waypoints,missions\\\\Szenario_WB_Hotel_Gabelbach_Hover_Kickelhahn.waypoints,missions\\\\Szenario_WB_Hotel_Gabelbach_Hover_Gabelbachskopf.waypoints,missions\\\\Szenario_WB_Hotel_Gabelbach_Hover_Dachskopf.waypoints\""
param *.uav[0].startX 3537m
param *.uav[0].startY 965m
param *.uav[0].startZ 539m
param *.uav[1].startX 312m
param *.uav[1].startY 1262m
param *.uav[1].startZ 540m
param *.uav[2].startX 2185m
param *.uav[2].startY 3026m
param *.uav[2].startZ 778m
param *.uav[3].startX 3537m
param *.uav[3].startY 965m
param *.uav[3].startZ 539m
param *.uav[4].startX 312m
param *.uav[4].startY 1262m
param *.uav[4].startZ 540m
param *.uav[5].startX 2185m
param *.uav[5].startY 3026m
param *.uav[5].startZ 778m
param *.uav[6].startX 3537m
param *.uav[6].startY 965m
param *.uav[6].startZ 539m
param *.uav[7].startX 312m
param *.uav[7].startY 1262m
param *.uav[7].startZ 540m
param *.uav[8].startX 2185m
param *.uav[8].startY 3026m
param *.uav[8].startZ 778m
param *.uav[9].startX 3537m
param *.uav[9].startY 965m
param *.uav[9].startZ 539m
param *.uav[10].startX 3537m
param *.uav[10].startY 965m
param *.uav[10].startZ 539m
param *.uav[11].startX 312m
param *.uav[11].startY 1262m
param *.uav[11].startZ 540m
param *.uav[12].startX 2185m
param *.uav[12].startY 3026m
param *.uav[12].startZ 778m
param *.uav[13].startX 3537m
param *.uav[13].startY 965m
param *.uav[13].startZ 539m
param *.uav[14].startX 312m
param *.uav[14].startY 1262m
param *.uav[14].startZ 540m
param *.uav[15].startX 2185m
param *.uav[15].startY 3026m
param *.uav[15].startZ 778m
param *.uav[16].startX 3537m
param *.uav[16].startY 965m
param *.uav[16].startZ 539m
param *.uav[17].startX 312m
param *.uav[17].startY 1262m
param *.uav[17].startZ 540m
param *.uav[18].startX 2185m
param *.uav[18].startY 3026m
param *.uav[18].startZ 778m
param *.uav[19].startX 3537m
param *.uav[19].startY 965m
param *.uav[19].startZ 539m
param *.uav[20].startX 3537m
param *.uav[20].startY 965m
param *.uav[20].startZ 539m
param *.uav[21].startX 312m
param *.uav[21].startY 1262m
param *.uav[21].startZ 540m
param *.uav[22].startX 2185m
param *.uav[22].startY 3026m
param *.uav[22].startZ 778m
param *.uav[23].startX 3537m
param *.uav[23].startY 965m
param *.uav[23].startZ 539m
param *.uav[24].startX 312m
param *.uav[24].startY 1262m
param *.uav[24].startZ 540m
param *.uav[25].startX 2185m
param *.uav[25].startY 3026m
param *.uav[25].startZ 778m
param *.uav[26].startX 3537m
param *.uav[26].startY 965m
param *.uav[26].startZ 539m
param *.uav[27].startX 312m
param *.uav[27].startY 1262m
param *.uav[27].startZ 540m
param *.uav[28].startX 2185m
param *.uav[28].startY 3026m
param *.uav[28].startZ 778m
param *.uav[29].startX 3537m
param *.uav[29].startY 965m
param *.uav[29].startZ 539m
param *.uav[30].startX 3537m
param *.uav[30].startY 965m
param *.uav[30].startZ 539m
param *.uav[31].startX 312m
param *.uav[31].startY 1262m
param *.uav[31].startZ 540m
param *.uav[32].startX 2185m
param *.uav[32].startY 3026m
param *.uav[32].startZ 778m
param *.uav[33].startX 3537m
param *.uav[33].startY 965m
param *.uav[33].startZ 539m
param *.uav[34].startX 312m
param *.uav[34].startY 1262m
param *.uav[34].startZ 540m
param *.uav[35].startX 2185m
param *.uav[35].startY 3026m
param *.uav[35].startZ 778m
param *.uav[36].startX 3537m
param *.uav[36].startY 965m
param *.uav[36].startZ 539m
param *.uav[37].startX 312m
param *.uav[37].startY 1262m
param *.uav[37].startZ 540m
param *.uav[38].startX 2185m
param *.uav[38].startY 3026m
param *.uav[38].startZ 778m
param *.uav[39].startX 3537m
param *.uav[39].startY 965m
param *.uav[39].startZ 539m
param *.uav[40].startX 3537m
param *.uav[40].startY 965m
param *.uav[40].startZ 539m
param *.uav[41].startX 312m
param *.uav[41].startY 1262m
param *.uav[41].startZ 540m
param *.uav[42].startX 2185m
param *.uav[42].startY 3026m
param *.uav[42].startZ 778m
param *.uav[43].startX 3537m
param *.uav[43].startY 965m
param *.uav[43].startZ 539m
param *.uav[44].startX 312m
param *.uav[44].startY 1262m
param *.uav[44].startZ 540m
param *.uav[45].startX 2185m
param *.uav[45].startY 3026m
param *.uav[45].startZ 778m
param *.uav[46].startX 3537m
param *.uav[46].startY 965m
param *.uav[46].startZ 539m
param *.uav[47].startX 312m
param *.uav[47].startY 1262m
param *.uav[47].startZ 540m
param *.uav[48].startX 2185m
param *.uav[48].startY 3026m
param *.uav[48].startZ 778m
param *.uav[49].startX 3537m
param *.uav[49].startY 965m
param *.uav[49].startZ 539m
param *.uav[50].startX 3537m
param *.uav[50].startY 965m
param *.uav[50].startZ 539m
param *.uav[51].startX 312m
param *.uav[51].startY 1262m
param *.uav[51].startZ 540m
param *.uav[52].startX 2185m
param *.uav[52].startY 3026m
param *.uav[52].startZ 778m
param *.uav[53].startX 3537m
param *.uav[53].startY 965m
param *.uav[53].startZ 539m
param *.uav[54].startX 312m
param *.uav[54].startY 1262m
param *.uav[54].startZ 540m
param *.uav[55].startX 2185m
param *.uav[55].startY 3026m
param *.uav[55].startZ 778m
param *.uav[56].startX 3537m
param *.uav[56].startY 965m
param *.uav[56].startZ 539m
param *.uav[57].startX 312m
param *.uav[57].startY 1262m
param *.uav[57].startZ 540m
param *.uav[58].startX 2185m
param *.uav[58].startY 3026m
param *.uav[58].startZ 778m
param *.uav[59].startX 3537m
param *.uav[59].startY 965m
param *.uav[59].startZ 539m
param *.uav[60].startX 3537m
param *.uav[60].startY 965m
param *.uav[60].startZ 539m
param *.uav[61].startX 312m
param *.uav[61].startY 1262m
param *.uav[61].startZ 540m
param *.uav[62].startX 2185m
param *.uav[62].startY 3026m
param *.uav[62].startZ 778m
param *.uav[63].startX 3537m
param *.uav[63].startY 965m
param *.uav[63].startZ 539m
param *.uav[64].startX 312m
param *.uav[64].startY 1262m
param *.uav[64].startZ 540m
param *.uav[65].startX 2185m
param *.uav[65].startY 3026m
param *.uav[65].startZ 778m
param *.uav[66].startX 3537m
param *.uav[66].startY 965m
param *.uav[66].startZ 539m
param *.uav[67].startX 312m
param *.uav[67].startY 1262m
param *.uav[67].startZ 540m
param *.uav[68].startX 2185m
param *.uav[68].startY 3026m
param *.uav[68].startZ 778m
param *.uav[69].startX 3537m
param *.uav[69].startY 965m
param *.uav[69].startZ 539m
param *.uav[70].startX 3537m
param *.uav[70].startY 965m
param *.uav[70].startZ 539m
param *.uav[71].startX 312m
param *.uav[71].startY 1262m
param *.uav[71].startZ 540m
param *.uav[72].startX 2185m
param *.uav[72].startY 3026m
param *.uav[72].startZ 778m
param *.uav[73].startX 3537m
param *.uav[73].startY 965m
param *.uav[73].startZ 539m
param *.uav[74].startX 312m
param *.uav[74].startY 1262m
param *.uav[74].startZ 540m
param *.uav[75].startX 2185m
param *.uav[75].startY 3026m
param *.uav[75].startZ 778m
param *.uav[76].startX 3537m
param *.uav[76].startY 965m
param *.uav[76].startZ 539m
param *.uav[77].startX 312m
param *.uav[77].startY 1262m
param *.uav[77].startZ 540m
param *.uav[78].startX 2185m
param *.uav[78].startY 3026m
param *.uav[78].startZ 778m
param *.uav[79].startX 3537m
param *.uav[79].startY 965m
param *.uav[79].startZ 539m
param *.uav[80].startX 3537m
param *.uav[80].startY 965m
param *.uav[80].startZ 539m
param *.uav[81].startX 312m
param *.uav[81].startY 1262m
param *.uav[81].startZ 540m
param *.uav[82].startX 2185m
param *.uav[82].startY 3026m
param *.uav[82].startZ 778m
param *.uav[83].startX 3537m
param *.uav[83].startY 965m
param *.uav[83].startZ 539m
param *.uav[84].startX 312m
param *.uav[84].startY 1262m
param *.uav[84].startZ 540m
param *.uav[85].startX 2185m
param *.uav[85].startY 3026m
param *.uav[85].startZ 778m
param *.uav[86].startX 3537m
param *.uav[86].startY 965m
param *.uav[86].startZ 539m
param *.uav[87].startX 312m
param *.uav[87].startY 1262m
param *.uav[87].startZ 540m
param *.uav[88].startX 2185m
param *.uav[88].startY 3026m
param *.uav[88].startZ 778m
param *.uav[89].startX 3537m
param *.uav[89].startY 965m
param *.uav[89].startZ 539m
param *.uav[90].startX 3537m
param *.uav[90].startY 965m
param *.uav[90].startZ 539m
param *.uav[91].startX 312m
param *.uav[91].startY 1262m
param *.uav[91].startZ 540m
param *.uav[92].startX 2185m
param *.uav[92].startY 3026m
param *.uav[92].startZ 778m
param *.uav[93].startX 3537m
param *.uav[93].startY 965m
param *.uav[93].startZ 539m
param *.uav[94].startX 312m
param *.uav[94].startY 1262m
param *.uav[94].startZ 540m
param *.uav[95].startX 2185m
param *.uav[95].startY 3026m
param *.uav[95].startZ 778m
param *.uav[96].startX 3537m
param *.uav[96].startY 965m
param *.uav[96].startZ 539m
param *.uav[97].startX 312m
param *.uav[97].startY 1262m
param *.uav[97].startZ 540m
param *.uav[98].startX 2185m
param *.uav[98].startY 3026m
param *.uav[98].startZ 778m
param *.uav[99].startX 3537m
param *.uav[99].startY 965m
param *.uav[99].startZ 539m
param *.osgEarthScene.scene "\"boston.earth\""
param *.playgroundLatitude 42.3558
param *.playgroundLongitude -71.0677
param *.playgroundWidth 400m
param *.playgroundHeight 200m
param *.channelController.connectionColor "\"#0000FF40\""
param *.channelController.showConnections false
param *.uav[*].modelURL "\"quadrocopter.small.obj.15.scale.0,0,90.rot\""
param *.uav[*].labelColor "\"#FF7C00CC\""
param *.uav[*].label2Color "\"#FF7C00EE\""
param *.uav[*].batteryCapacity 5200mAh
param *.uav[*].batteryRemaining uav[index].batteryCapacity
param *.uav[*].predictionQuantile 0.95
param *.uav[*].replacementMethod 2
param *.uav[*].weightedSumWeight 0.5
param *.cs[*].modelURL "\"chargingstation_v1.osgt.2.scale.0,0,0.rot.0,0,-15e-1.trans\""
param *.cs[*].spotsWaiting 999
param *.cs[*].spotsCharging 999
param *.cs[*].chargeEffectivenessPercentage 100
param *.cs[*].nonLinearPhaseStartPercentage 85
param *.cs[*].chargeCurrent 6.0A
param *.cs[*].prioritizeFastCharge true
param *.missionControl.replacementSearchMethod 0
param *.*.timeStep 9s

scalar OsgEarthNet.uav[0] utilizationSecMission 27895.618514166
scalar OsgEarthNet.uav[0] utilizationSecMaintenance 20701.352482407
scalar OsgEarthNet.uav[0] utilizationSecCharge 179451.83241617
scalar OsgEarthNet.uav[0] utilizationSecIdle 31151.195587262
scalar OsgEarthNet.uav[0] utilizationEnergyMission 129858.19811249
scalar OsgEarthNet.uav[0] utilizationEnergyMaintenance 96513.146965027
scalar OsgEarthNet.uav[0] utilizationEnergyCharge 225540.93554688
scalar OsgEarthNet.uav[0] utilizationEnergyOverdrawMission 0
scalar OsgEarthNet.uav[0] utilizationEnergyOverdrawMaintenance 0
scalar OsgEarthNet.uav[0] utilizationCountMissions 50
scalar OsgEarthNet.uav[0] utilizationCountManeuversMission 458
scalar OsgEarthNet.uav[0] utilizationCountManeuversMaintenance 100
scalar OsgEarthNet.uav[0] utilizationCountChargeState 50
scalar OsgEarthNet.uav[0] utilizationCountOverdrawnAfterMission 0
scalar OsgEarthNet.uav[0] utilizationCountIdleState 50
scalar OsgEarthNet.uav[0] utilizationFail 0
scalar OsgEarthNet.uav[0] simulationTime 259200
scalar OsgEarthNet.uav[1] utilizationSecMission 28462.473908168
scalar OsgEarthNet.uav[1] utilizationSecMaintenance 19153.564806385
scalar OsgEarthNet.uav[1] utilizationSecCharge 174890
scalar OsgEarthNet.uav[1] utilizationSecIdle 36693.960285447
scalar OsgEarthNet.uav[1] utilizationEnergyMission 130233.95252609
scalar OsgEarthNet.uav[1] utilizationEnergyMaintenance 89587.445827484
scalar OsgEarthNet.uav[1] utilizationEnergyCharge 219880.83691406
scalar OsgEarthNet.uav[1] utilizationEnergyOverdrawMission 0
scalar OsgEarthNet.uav[1] utilizationEnergyOverdrawMaintenance 0
scalar OsgEarthNet.uav[1] utilizationCountMissions 48
scalar OsgEarthNet.uav[1] utilizationCountManeuversMission 458
scalar OsgEarthNet.uav[1] utilizationCountManeuversMaintenance 96
scalar OsgEarthNet.uav[1] utilizationCountChargeState 48
scalar OsgEarthNet.uav[1] utilizationCountOverdrawnAfterMission 0
scalar OsgEarthNet.uav[1] utilizationCountIdleState 49
scalar OsgEarthNet.uav[1] utilizationFail 0
scalar OsgEarthNet.uav[1] simulationTime 259200
scalar OsgEarthNet.uav[2] utilizationSecMission 29892.380913465
scalar OsgEarthNet.uav[2] utilizationSecMaintenance 17535.159148958
scalar OsgEarthNet.uav[2] utilizationSecCharge 173456.10871676
scalar OsgEarthNet.uav[2] utilizationSecIdle 38316.350220821
scalar OsgEarthNet.uav[2] utilizationEnergyMission 138625.10674286
scalar OsgEarthNet.uav[2] utilizationEnergyMaintenance 81537.78225708
scalar OsgEarthNet.uav[2] utilizationEnergyCharge 219058.05664062
scalar OsgEarthNet.uav[2] utilizationEnergyOverdrawMission 0
scalar OsgEarthNet.uav[2] utilizationEnergyOverdrawMaintenance 0
scalar OsgEarthNet.uav[2] utilizationCountMissions 48
scalar OsgEarthNet.uav[2] utilizationCountManeuversMission 473
scalar OsgEarthNet.uav[2] utilizationCountManeuversMaintenance 96
scalar OsgEarthNet.uav[2] utilizationCountChargeState 48
scalar OsgEarthNet.uav[2] utilizationCountOverdrawnAfterMission 0
scalar OsgEarthNet.uav[2] utilizationCountIdleState 48
scalar OsgEarthNet.uav[2] utilizationFail 0
scalar OsgEarthNet.uav[2] simulationTime 259200
scalar OsgEarthNet.uav[3] utilizationSecMission 26605.26510456
scalar OsgEarthNet.uav[3] utilizationSecMaintenance 22881.745183744
scalar OsgEarthNet.uav[3] utilizationSecCharge 181070.22272917
scalar OsgEarthNet.uav[3] utilizationSecIdle 28642.765982528
scalar OsgEarthNet.uav[3] utilizationEnergyMission 125014.69141769
scalar OsgEarthNet.uav[3] utilizationEnergyMaintenance 106403.59226608
scalar OsgEarthNet.uav[3] utilizationEnergyCharge 227117.48803711
scalar OsgEarthNet.uav[3] utilizationEnergyOverdrawMission 0
scalar OsgEarthNet.uav[3] utilizationEnergyOverdrawMaintenance 0
scalar OsgEarthNet.uav[3] utilizationCountMissions 51
scalar OsgEarthNet.uav[3] utilizationCountManeuversMission 443
scalar OsgEarthNet.uav[3] utilizationCountManeuversMaintenance 102
scalar OsgEarthNet.uav[3] utilizationCountChargeState 51
scalar OsgEarthNet.uav[3] utilizationCountOverdrawnAfterMission 0
scalar OsgEarthNet.uav[3] utilizationCountIdleState 51
scalar OsgEarthNet.uav[3] utilizationFail 0
scalar OsgEarthNet.uav[3] simulationTime 259200
scalar OsgEarthNet.uav[4] utilizationSecMission 30019.374442836
scalar OsgEarthNet.uav[4] utilizationSecMaintenance 19678.624557164
scalar OsgEarthNet.uav[4] utilizationSecCharge 182540
scalar OsgEarthNet.uav[4] utilizationSecIdle 26962
scalar OsgEarthNet.uav[4] utilizationEnergyMission 139247.56090548
scalar OsgEarthNet.uav[4] utilizationEnergyMaintenance 92304.64919281
scalar OsgEarthNet.uav[4] utilizationEnergyCharge 229729.64233398
scalar OsgEarthNet.uav[4] utilizationEnergyOverdrawMission 0
scalar OsgEarthNet.uav[4] utilizationEnergyOverdrawMaintenance 0
scalar OsgEarthNet.uav[4] utilizationCountMissions 50
scalar OsgEarthNet.uav[4] utilizationCountManeuversMission 499
scalar OsgEarthNet.uav[4] utilizationCountManeuversMaintenance 100
scalar OsgEarthNet.uav[4] utilizationCountChargeState 50
scalar OsgEarthNet.uav[4] utilizationCountOverdrawnAfterMission 0
scalar OsgEarthNet.uav[4] utilizationCountIdleState 51
scalar OsgEarthNet.uav[4] utilizationFail 0
scalar OsgEarthNet.uav[4] simulationTime 259200
scalar OsgEarthNet.uav[5] utilizationSecMission 27840.72877195
scalar OsgEarthNet.uav[5] utilizationSecMaintenance 20877.263366422
scalar OsgEarthNet.uav[5] utilizationSecCharge 177522.58151434
scalar OsgEarthNet.uav[5] utilizationSecIdle 32959.42534729
scalar OsgEarthNet.uav[5] utilizationEnergyMission 126202.77977753
scalar OsgEarthNet.uav[5] utilizationEnergyMaintenance 97201.365848541
scalar OsgEarthNet.uav[5] utilizationEnergyCharge 223813.73364258
scalar OsgEarthNet.uav[5] utilizationEnergyOverdrawMission 0
scalar OsgEarthNet.uav[5] utilizationEnergyOverdrawMaintenance 0
scalar OsgEarthNet.uav[5] utilizationCountMissions 49
scalar OsgEarthNet.uav[5] utilizationCountManeuversMission 455
scalar OsgEarthNet.uav[5] utilizationCountManeuversMaintenance 98
scalar OsgEarthNet.uav[5] utilizationCountChargeState 49
scalar OsgEarthNet.uav[5] utilizationCountOverdrawnAfterMission 0
scalar OsgEarthNet.uav[5] utilizationCountIdleState 49
scalar OsgEarthNet.uav[5] utilizationFail 0
scalar OsgEarthNet.uav[5] simulationTime 259200
scalar OsgEarthNet.uav[6] utilizationSecMission 29923.856996866
scalar OsgEarthNet.uav[6] utilizationSecMaintenance 19722.331940876
scalar OsgEarthNet.uav[6] utilizationSecCharge 179630.41792754
scalar OsgEarthNet.uav[6] utilizationSecIdle 29923.392134723
scalar OsgEarthNet.uav[6] utilizationEnergyMission 138223.79553223
scalar OsgEarthNet.uav[6] utilizationEnergyMaintenance 91214.125621796
scalar OsgEarthNet.uav[6] utilizationEnergyCharge 226451.89123535
scalar OsgEarthNet.uav[6] utilizationEnergyOverdrawMission 0
scalar OsgEarthNet.uav[6] utilizationEnergyOverdrawMaintenance 0
scalar OsgEarthNet.uav[6] utilizationCountMissions 50
scalar OsgEarthNet.uav[6] utilizationCountManeuversMission 494
scalar OsgEarthNet.uav[6] utilizationCountManeuversMaintenance 100
scalar OsgEarthNet.uav[6] utilizationCountChargeState 50
scalar OsgEarthNet.uav[6] utilizationCountOverdrawnAfterMission 0
scalar OsgEarthNet.uav[6] utilizationCountIdleState 50
scalar OsgEarthNet.uav[6] utilizationFail 0
scalar OsgEarthNet.uav[6] simulationTime 259200
scalar OsgEarthNet.uav[7] utilizationSecMission 29058.282317952
scalar OsgEarthNet.uav[7] utilizationSecMaintenance 19093.364074785
scalar OsgEarthNet.uav[7] utilizationSecCharge 177570
scalar OsgEarthNet.uav[7] utilizationSecIdle 33478.352607263
scalar OsgEarthNet.uav[7] utilizationEnergyMission 135422.55439957
scalar OsgEarthNet.uav[7] utilizationEnergyMaintenance 89817.900211334
scalar OsgEarthNet.uav[7] utilizationEnergyCharge 222853.74365234
scalar OsgEarthNet.uav[7] utilizationEnergyOverdrawMission 0
scalar OsgEarthNet.uav[7] utilizationEnergyOverdrawMaintenance 0
scalar OsgEarthNet.uav[7] utilizationCountMissions 49
scalar OsgEarthNet.uav[7] utilizationCountManeuversMission 484
scalar OsgEarthNet.uav[7] utilizationCountManeuversMaintenance 99
scalar OsgEarthNet.uav[7] utilizationCountChargeState 49
scalar OsgEarthNet.uav[7] utilizationCountOverdrawnAfterMission 0
scalar OsgEarthNet.uav[7] utilizationCountIdleState 49
scalar OsgEarthNet.uav[7] utilizationFail 0
scalar OsgEarthNet.uav[7] simulationTime 259200
scalar OsgEarthNet.uav[8] utilizationSecMission 28788.925675573
scalar OsgEarthNet.uav[8] utilizationSecMaintenance 18194.671917473
scalar OsgEarthNet.uav[8] utilizationSecCharge 173206.56459291
scalar OsgEarthNet.uav[8] utilizationSecIdle 39009.83681404
scalar OsgEarthNet.uav[8] utilizationEnergyMission 134330.61493683
scalar OsgEarthNet.uav[8] utilizationEnergyMaintenance 84855.822341919
scalar OsgEarthNet.uav[8] utilizationEnergyCharge 218629.81298828
scalar OsgEarthNet.uav[8] utilizationEnergyOverdrawMission 0
scalar OsgEarthNet.uav[8] utilizationEnergyOverdrawMaintenance 0
scalar OsgEarthNet.uav[8] utilizationCountMissions 48
scalar OsgEarthNet.uav[8] utilizationCountManeuversMission 463
scalar OsgEarthNet.uav[8] utilizationCountManeuversMaintenance 96
scalar OsgEarthNet.uav[8] utilizationCountChargeState 48
scalar OsgEarthNet.uav[8] utilizationCountOverdrawnAfterMission 0
scalar OsgEarthNet.uav[8] utilizationCountIdleState 47
scalar OsgEarthNet.uav[8] utilizationFail 0
scalar OsgEarthNet.uav[8] simulationTime 259200
scalar OsgEarthNet.uav[9] utilizationSecMission 24233.307053112
scalar OsgEarthNet.uav[9] utilizationSecMaintenance 16772.878934403
scalar OsgEarthNet.uav[9] utilizationSecCharge 148121.64203533
scalar OsgEarthNet.uav[9] utilizationSecIdle 70072.170977151
scalar OsgEarthNet.uav[9] utilizationEnergyMission 111844.50450897
scalar OsgEarthNet.uav[9] utilizationEnergyMaintenance 78468.841911316
scalar OsgEarthNet.uav[9] utilizationEnergyCharge 187263.67822266
scalar OsgEarthNet.uav[9] utilizationEnergyOverdrawMission 0
scalar OsgEarthNet.uav[9] utilizationEnergyOverdrawMaintenance 0
scalar OsgEarthNet.uav[9] utilizationCountMissions 41
scalar OsgEarthNet.uav[9] utilizationCountManeuversMission 393
scalar OsgEarthNet.uav[9] utilizationCountManeuversMaintenance 82
scalar OsgEarthNet.uav[9] utilizationCountChargeState 41
scalar OsgEarthNet.uav[9] utilizationCountOverdrawnAfterMission 0
scalar OsgEarthNet.uav[9] utilizationCountIdleState 41
scalar OsgEarthNet.uav[9] utilizationFail 0
scalar OsgEarthNet.uav[9] simulationTime 259200
scalar OsgEarthNet.uav[10] utilizationSecMission 28672.219065038
scalar OsgEarthNet.uav[10] utilizationSecMaintenance 21116.955694114
scalar OsgEarthNet.uav[10] utilizationSecCharge 181428.82424085
scalar OsgEarthNet.uav[10] utilizationSecIdle 27982
scalar OsgEarthNet.uav[10] utilizationEnergyMission 132017.46387482
scalar OsgEarthNet.uav[10] utilizationEnergyMaintenance 97118.738277435
scalar OsgEarthNet.uav[10] utilizationEnergyCharge 227888.20800781
scalar OsgEarthNet.uav[10] utilizationEnergyOverdrawMission 0
scalar OsgEarthNet.uav[10] utilizationEnergyOverdrawMaintenance 0
scalar OsgEarthNet.uav[10] utilizationCountMissions 51
scalar OsgEarthNet.uav[10] utilizationCountManeuversMission 468
scalar OsgEarthNet.uav[10] utilizationCountManeuversMaintenance 101
scalar OsgEarthNet.uav[10] utilizationCountChargeState 51
scalar OsgEarthNet.uav[10] utilizationCountOverdrawnAfterMission 0
scalar OsgEarthNet.uav[10] utilizationCountIdleState 51
scalar OsgEarthNet.uav[10] utilizationFail 0
scalar OsgEarthNet.uav[10] simulationTime 259200
scalar OsgEarthNet.uav[11] utilizationSecMission 24943.216367882
scalar OsgEarthNet.uav[11] utilizationSecMaintenance 20819.907122486
scalar OsgEarthNet.uav[11] utilizationSecCharge 168066.68468588
scalar OsgEarthNet.uav[11] utilizationSecIdle 45370.190823755
scalar OsgEarthNet.uav[11] utilizationEnergyMission 115453.38480377
scalar OsgEarthNet.uav[11] utilizationEnergyMaintenance 96567.549468994
scalar OsgEarthNet.uav[11] utilizationEnergyCharge 211618.4609375
scalar OsgEarthNet.uav[11] utilizationEnergyOverdrawMission 0
scalar OsgEarthNet.uav[11] utilizationEnergyOverdrawMaintenance 0
scalar OsgEarthNet.uav[11] utilizationCountMissions 47
scalar OsgEarthNet.uav[11] utilizationCountManeuversMission 412
scalar OsgEarthNet.uav[11] utilizationCountManeuversMaintenance 94
scalar OsgEarthNet.uav[11] utilizationCountChargeState 47
scalar OsgEarthNet.uav[11] utilizationCountOverdrawnAfterMission 0
scalar OsgEarthNet.uav[11] utilizationCountIdleState 46
scalar OsgEarthNet.uav[11] utilizationFail 0
scalar OsgEarthNet.uav[11] simulationTime 259200
scalar OsgEarthNet.uav[12] utilizationSecMission 29960.110782894
scalar OsgEarthNet.uav[12] utilizationSecMaintenance 19139.793594033
scalar OsgEarthNet.uav[12] utilizationSecCharge 179250.87500916
scalar OsgEarthNet.uav[12] utilizationSecIdle 30849.219613916
scalar OsgEarthNet.uav[12] utilizationEnergyMission 138054.25696182
scalar OsgEarthNet.uav[12] utilizationEnergyMaintenance 88746.370807648
scalar OsgEarthNet.uav[12] utilizationEnergyCharge 225985.41992188
scalar OsgEarthNet.uav[12] utilizationEnergyOverdrawMission 0
scalar OsgEarthNet.uav[12] utilizationEnergyOverdrawMaintenance 0
scalar OsgEarthNet.uav[12] utilizationCountMissions 50
scalar OsgEarthNet.uav[12] utilizationCountManeuversMission 495
scalar OsgEarthNet.uav[12] utilizationCountManeuversMaintenance 100
scalar OsgEarthNet.uav[12] utilizationCountChargeState 50
scalar OsgEarthNet.uav[12] utilizationCountOverdrawnAfterMission 0
scalar OsgEarthNet.uav[12] utilizationCountIdleState 49
scalar OsgEarthNet.uav[12] utilizationFail 0
scalar OsgEarthNet.uav[12] simulationTime 259200
scalar OsgEarthNet.uav[13] utilizationSecMission 28491.789565129
scalar OsgEarthNet.uav[13] utilizationSecMaintenance 19526.387692398
scalar OsgEarthNet.uav[13] utilizationSecCharge 175890
scalar OsgEarthNet.uav[13] utilizationSecIdle 35291.821742473
scalar OsgEarthNet.uav[13] utilizationEnergyMission 132173.61039734
scalar OsgEarthNet.uav[13] utilizationEnergyMaintenance 90882.70446641
scalar OsgEarthNet.uav[13] utilizationEnergyCharge 221752.33764648
scalar OsgEarthNet.uav[13] utilizationEnergyOverdrawMission 0
scalar OsgEarthNet.uav[13] utilizationEnergyOverdrawMaintenance 0
scalar OsgEarthNet.uav[13] utilizationCountMissions 48
scalar OsgEarthNet.uav[13] utilizationCountManeuversMission 451
scalar OsgEarthNet.uav[13] utilizationCountManeuversMaintenance 97
scalar OsgEarthNet.uav[13] utilizationCountChargeState 48
scalar OsgEarthNet.uav[13] utilizationCountOverdrawnAfterMission 0
scalar OsgEarthNet.uav[13] utilizationCountIdleState 49
scalar OsgEarthNet.uav[13] utilizationFail 0
scalar OsgEarthNet.uav[13] simulationTime 259200
scalar OsgEarthNet.uav[14] utilizationSecMission 27356.366252397
scalar OsgEarthNet.uav[14] utilizationSecMaintenance 22456.320710554
scalar OsgEarthNet.uav[14] utilizationSecCharge 180802.70014753
scalar OsgEarthNet.uav[14] utilizationSecIdle 28584.611889516
scalar OsgEarthNet.uav[14] utilizationEnergyMission 126990.4524231
scalar OsgEarthNet.uav[14] utilizationEnergyMaintenance 103055.1149025
scalar OsgEarthNet.uav[14] utilizationEnergyCharge 227071.39916992
scalar OsgEarthNet.uav[14] utilizationEnergyOverdrawMission 0
scalar OsgEarthNet.uav[14] utilizationEnergyOverdrawMaintenance 0
scalar OsgEarthNet.uav[14] utilizationCountMissions 51
scalar OsgEarthNet.uav[14] utilizationCountManeuversMission 446
scalar OsgEarthNet.uav[14] utilizationCountManeuversMaintenance 102
scalar OsgEarthNet.uav[14] utilizationCountChargeState 51
scalar OsgEarthNet.uav[14] utilizationCountOverdrawnAfterMission 0
scalar OsgEarthNet.uav[14] utilizationCountIdleState 50
scalar OsgEarthNet.uav[14] utilizationFail 0
scalar OsgEarthNet.uav[14] simulationTime 259200
scalar OsgEarthNet.uav[15] utilizationSecMission 27537.901835818
scalar OsgEarthNet.uav[15] utilizationSecMaintenance 15870.042568526
scalar OsgEarthNet.uav[15] utilizationSecCharge 157298.52926442
scalar OsgEarthNet.uav[15] utilizationSecIdle 58493.525331232
scalar OsgEarthNet.uav[15] utilizationEnergyMission 126016.19633484
scalar OsgEarthNet.uav[15] utilizationEnergyMaintenance 72978.071716309
scalar OsgEarthNet.uav[15] utilizationEnergyCharge 198873.0534668
scalar OsgEarthNet.uav[15] utilizationEnergyOverdrawMission 0
scalar OsgEarthNet.uav[15] utilizationEnergyOverdrawMaintenance 0
scalar OsgEarthNet.uav[15] utilizationCountMissions 43
scalar OsgEarthNet.uav[15] utilizationCountManeuversMission 442
scalar OsgEarthNet.uav[15] utilizationCountManeuversMaintenance 86
scalar OsgEarthNet.uav[15] utilizationCountChargeState 43
scalar OsgEarthNet.uav[15] utilizationCountOverdrawnAfterMission 0
scalar OsgEarthNet.uav[15] utilizationCountIdleState 41
scalar OsgEarthNet.uav[15] utilizationFail 0
scalar OsgEarthNet.uav[15] simulationTime 259200
scalar OsgEarthNet.uav[16] utilizationSecMission 25403.001757186
scalar OsgEarthNet.uav[16] utilizationSecMaintenance 20639.239745243
scalar OsgEarthNet.uav[16] utilizationSecCharge 168082.9755308
scalar OsgEarthNet.uav[16] utilizationSecIdle 45074.78196677
scalar OsgEarthNet.uav[16] utilizationEnergyMission 118701.46360779
scalar OsgEarthNet.uav[16] utilizationEnergyMaintenance 95689.071289062
scalar OsgEarthNet.uav[16] utilizationEnergyCharge 211350.91192627
scalar OsgEarthNet.uav[16] utilizationEnergyOverdrawMission 0
scalar OsgEarthNet.uav[16] utilizationEnergyOverdrawMaintenance 0
scalar OsgEarthNet.uav[16] utilizationCountMissions 47
scalar OsgEarthNet.uav[16] utilizationCountManeuversMission 427
scalar OsgEarthNet.uav[16] utilizationCountManeuversMaintenance 94
scalar OsgEarthNet.uav[16] utilizationCountChargeState 47
scalar OsgEarthNet.uav[16] utilizationCountOverdrawnAfterMission 0
scalar OsgEarthNet.uav[16] utilizationCountIdleState 47
scalar OsgEarthNet.uav[16] utilizationFail 0
scalar OsgEarthNet.uav[16] simulationTime 259200
scalar OsgEarthNet.uav[17] utilizationSecMission 27771.688678515
scalar OsgEarthNet.uav[17] utilizationSecMaintenance 20822.856289804
scalar OsgEarthNet.uav[17] utilizationSecCharge 177988.97921344
scalar OsgEarthNet.uav[17] utilizationSecIdle 32616.474818245
scalar OsgEarthNet.uav[17] utilizationEnergyMission 128435.40270233
scalar OsgEarthNet.uav[17] utilizationEnergyMaintenance 96035.777656555
scalar OsgEarthNet.uav[17] utilizationEnergyCharge 224508.34472656
scalar OsgEarthNet.uav[17] utilizationEnergyOverdrawMission 0
scalar OsgEarthNet.uav[17] utilizationEnergyOverdrawMaintenance 0
scalar OsgEarthNet.uav[17] utilizationCountMissions 49
scalar OsgEarthNet.uav[17] utilizationCountManeuversMission 459
scalar OsgEarthNet.uav[17] utilizationCountManeuversMaintenance 98
scalar OsgEarthNet.uav[17] utilizationCountChargeState 49
scalar OsgEarthNet.uav[17] utilizationCountOverdrawnAfterMission 0
scalar OsgEarthNet.uav[17] utilizationCountIdleState 48
scalar OsgEarthNet.uav[17] utilizationFail 0
scalar OsgEarthNet.uav[17] simulationTime 259200
scalar OsgEarthNet.uav[18] utilizationSecMission 29640.27845347
scalar OsgEarthNet.uav[18] utilizationSecMaintenance 18677.157181351
scalar OsgEarthNet.uav[18] utilizationSecCharge 177720
scalar OsgEarthNet.uav[18] utilizationSecIdle 33162.563365178
scalar OsgEarthNet.uav[18] utilizationEnergyMission 135819.72696686
scalar OsgEarthNet.uav[18] utilizationEnergyMaintenance 86842.590194702
scalar OsgEarthNet.uav[18] utilizationEnergyCharge 222981.72851562
scalar OsgEarthNet.uav[18] utilizationEnergyOverdrawMission 0
scalar OsgEarthNet.uav[18] utilizationEnergyOverdrawMaintenance 0
scalar OsgEarthNet.uav[18] utilizationCountMissions 49
scalar OsgEarthNet.uav[18] utilizationCountManeuversMission 482
scalar OsgEarthNet.uav[18] utilizationCountManeuversMaintenance 98
scalar OsgEarthNet.uav[18] utilizationCountChargeState 49
scalar OsgEarthNet.uav[18] utilizationCountOverdrawnAfterMission 0
scalar OsgEarthNet.uav[18] utilizationCountIdleState 49
scalar OsgEarthNet.uav[18] utilizationFail 0
scalar OsgEarthNet.uav[18] simulationTime 259200
scalar OsgEarthNet.uav[19] utilizationSecMission 21809.653397352
scalar OsgEarthNet.uav[19] utilizationSecMaintenance 15842.299400332
scalar OsgEarthNet.uav[19] utilizationSecCharge 136354.79388074
scalar OsgEarthNet.uav[19] utilizationSecIdle 85193.252321579
scalar OsgEarthNet.uav[19] utilizationEnergyMission 101083.94003296
scalar OsgEarthNet.uav[19] utilizationEnergyMaintenance 72977.184123993
scalar OsgEarthNet.uav[19] utilizationEnergyCharge 172599.72070312
scalar OsgEarthNet.uav[19] utilizationEnergyOverdrawMission 0
scalar OsgEarthNet.uav[19] utilizationEnergyOverdrawMaintenance 0
scalar OsgEarthNet.uav[19] utilizationCountMissions 38
scalar OsgEarthNet.uav[19] utilizationCountManeuversMission 359
scalar OsgEarthNet.uav[19] utilizationCountManeuversMaintenance 76
scalar OsgEarthNet.uav[19] utilizationCountChargeState 38
scalar OsgEarthNet.uav[19] utilizationCountOverdrawnAfterMission 0
scalar OsgEarthNet.uav[19] utilizationCountIdleState 36
scalar OsgEarthNet.uav[19] utilizationFail 0
scalar OsgEarthNet.uav[19] simulationTime 259200
scalar OsgEarthNet.uav[20] utilizationSecMission 28574.80487089
scalar OsgEarthNet.uav[20] utilizationSecMaintenance 19727.5450365
scalar OsgEarthNet.uav[20] utilizationSecCharge 174324.57503971
scalar OsgEarthNet.uav[20] utilizationSecIdle 36573.074052897
scalar OsgEarthNet.uav[20] utilizationEnergyMission 132326.69683456
scalar OsgEarthNet.uav[20] utilizationEnergyMaintenance 90870.389183044
scalar OsgEarthNet.uav[20] utilizationEnergyCharge 218950.69543457
scalar OsgEarthNet.uav[20] utilizationEnergyOverdrawMission 0
scalar OsgEarthNet.uav[20] utilizationEnergyOverdrawMaintenance 0
scalar OsgEarthNet.uav[20] utilizationCountMissions 49
scalar OsgEarthNet.uav[20] utilizationCountManeuversMission 450
scalar OsgEarthNet.uav[20] utilizationCountManeuversMaintenance 98
scalar OsgEarthNet.uav[20] utilizationCountChargeState 49
scalar OsgEarthNet.uav[20] utilizationCountOverdrawnAfterMission 0
scalar OsgEarthNet.uav[20] utilizationCountIdleState 47
scalar OsgEarthNet.uav[20] utilizationFail 0
scalar OsgEarthNet.uav[20] simulationTime 259200
scalar OsgEarthNet.uav[21] utilizationSecMission 26601.649131702
scalar OsgEarthNet.uav[21] utilizationSecMaintenance 19968.331585385
scalar OsgEarthNet.uav[21] utilizationSecCharge 170280
scalar OsgEarthNet.uav[21] utilizationSecIdle 42350.018282913
scalar OsgEarthNet.uav[21] utilizationEnergyMission 124096.95705414
scalar OsgEarthNet.uav[21] utilizationEnergyMaintenance 93590.057181779
scalar OsgEarthNet.uav[21] utilizationEnergyCharge 213930.83105469
scalar OsgEarthNet.uav[21] utilizationEnergyOverdrawMission 0
scalar OsgEarthNet.uav[21] utilizationEnergyOverdrawMaintenance 0
scalar OsgEarthNet.uav[21] utilizationCountMissions 48
scalar OsgEarthNet.uav[21] utilizationCountManeuversMission 450
scalar OsgEarthNet.uav[21] utilizationCountManeuversMaintenance 96
scalar OsgEarthNet.uav[21] utilizationCountChargeState 47
scalar OsgEarthNet.uav[21] utilizationCountOverdrawnAfterMission 0
scalar OsgEarthNet.uav[21] utilizationCountIdleState 45
scalar OsgEarthNet.uav[21] utilizationFail 0
scalar OsgEarthNet.uav[21] simulationTime 259200
scalar OsgEarthNet.uav[22] utilizationSecMission 28076.945151722
scalar OsgEarthNet.uav[22] utilizationSecMaintenance 21865.603584247
scalar OsgEarthNet.uav[22] utilizationSecCharge 180790
scalar OsgEarthNet.uav[22] utilizationSecIdle 28467.450264031
scalar OsgEarthNet.uav[22] utilizationEnergyMission 129553.35821133
scalar OsgEarthNet.uav[22] utilizationEnergyMaintenance 100422.87700653
scalar OsgEarthNet.uav[22] utilizationEnergyCharge 226947.41479492
scalar OsgEarthNet.uav[22] utilizationEnergyOverdrawMission 0
scalar OsgEarthNet.uav[22] utilizationEnergyOverdrawMaintenance 0
scalar OsgEarthNet.uav[22] utilizationCountMissions 50
scalar OsgEarthNet.uav[22] utilizationCountManeuversMission 463
scalar OsgEarthNet.uav[22] utilizationCountManeuversMaintenance 101
scalar OsgEarthNet.uav[22] utilizationCountChargeState 50
scalar OsgEarthNet.uav[22] utilizationCountOverdrawnAfterMission 0
scalar OsgEarthNet.uav[22] utilizationCountIdleState 48
scalar OsgEarthNet.uav[22] utilizationFail 0
scalar OsgEarthNet.uav[22] simulationTime 259200
scalar OsgEarthNet.uav[23] utilizationSecMission 27258.53832988
scalar OsgEarthNet.uav[23] utilizationSecMaintenance 18663.303778033
scalar OsgEarthNet.uav[23] utilizationSecCharge 164417.39111997
scalar OsgEarthNet.uav[23] utilizationSecIdle 48860.765772119
scalar OsgEarthNet.uav[23] utilizationEnergyMission 125758.40993118
scalar OsgEarthNet.uav[23] utilizationEnergyMaintenance 86336.566799164
scalar OsgEarthNet.uav[23] utilizationEnergyCharge 207411.5088501
scalar OsgEarthNet.uav[23] utilizationEnergyOverdrawMission 0
scalar OsgEarthNet.uav[23] utilizationEnergyOverdrawMaintenance 0
scalar OsgEarthNet.uav[23] utilizationCountMissions 46
scalar OsgEarthNet.uav[23] utilizationCountManeuversMission 451
scalar OsgEarthNet.uav[23] utilizationCountManeuversMaintenance 92
scalar OsgEarthNet.uav[23] utilizationCountChargeState 46
scalar OsgEarthNet.uav[23] utilizationCountOverdrawnAfterMission 0
scalar OsgEarthNet.uav[23] utilizationCountIdleState 42
scalar OsgEarthNet.uav[23] utilizationFail 0
scalar OsgEarthNet.uav[23] simulationTime 259200
scalar OsgEarthNet.uav[24] utilizationSecMission 29530.377123958
scalar OsgEarthNet.uav[24] utilizationSecMaintenance 18559.422928345
scalar OsgEarthNet.uav[24] utilizationSecCharge 176870
scalar OsgEarthNet.uav[24] utilizationSecIdle 34240.198947698
scalar OsgEarthNet.uav[24] utilizationEnergyMission 136994.7808609
scalar OsgEarthNet.uav[24] utilizationEnergyMaintenance 86176.536647797
scalar OsgEarthNet.uav[24] utilizationEnergyCharge 222814.99609375
scalar OsgEarthNet.uav[24] utilizationEnergyOverdrawMission 0
scalar OsgEarthNet.uav[24] utilizationEnergyOverdrawMaintenance 0
scalar OsgEarthNet.uav[24] utilizationCountMissions 49
scalar OsgEarthNet.uav[24] utilizationCountManeuversMission 476
scalar OsgEarthNet.uav[24] utilizationCountManeuversMaintenance 98
scalar OsgEarthNet.uav[24] utilizationCountChargeState 49
scalar OsgEarthNet.uav[24] utilizationCountOverdrawnAfterMission 0
scalar OsgEarthNet.uav[24] utilizationCountIdleState 44
scalar OsgEarthNet.uav[24] utilizationFail 0
scalar OsgEarthNet.uav[24] simulationTime 259200
scalar OsgEarthNet.uav[25] utilizationSecMission 28256.033924258
scalar OsgEarthNet.uav[25] utilizationSecMaintenance 16845.674341401
scalar OsgEarthNet.uav[25] utilizationSecCharge 165287.58267711
scalar OsgEarthNet.uav[25] utilizationSecIdle 48810.708057228
scalar OsgEarthNet.uav[25] utilizationEnergyMission 130904.15924835
scalar OsgEarthNet.uav[25] utilizationEnergyMaintenance 78608.273414612
scalar OsgEarthNet.uav[25] utilizationEnergyCharge 208662.00146484
scalar OsgEarthNet.uav[25] utilizationEnergyOverdrawMission 0
scalar OsgEarthNet.uav[25] utilizationEnergyOverdrawMaintenance 0
scalar OsgEarthNet.uav[25] utilizationCountMissions 46
scalar OsgEarthNet.uav[25] utilizationCountManeuversMission 451
scalar OsgEarthNet.uav[25] utilizationCountManeuversMaintenance 92
scalar OsgEarthNet.uav[25] utilizationCountChargeState 46
scalar OsgEarthNet.uav[25] utilizationCountOverdrawnAfterMission 0
scalar OsgEarthNet.uav[25] utilizationCountIdleState 44
scalar OsgEarthNet.uav[25] utilizationFail 0
scalar OsgEarthNet.uav[25] simulationTime 259200
scalar OsgEarthNet.uav[26] utilizationSecMission 28721.845009815
scalar OsgEarthNet.uav[26] utilizationSecMaintenance 19953.796784305
scalar OsgEarthNet.uav[26] utilizationSecCharge 174222.35720588
scalar OsgEarthNet.uav[26] utilizationSecIdle 36302
scalar OsgEarthNet.uav[26] utilizationEnergyMission 131596.30174255
scalar OsgEarthNet.uav[26] utilizationEnergyMaintenance 92002.357387543
scalar OsgEarthNet.uav[26] utilizationEnergyCharge 220829.79174805
scalar OsgEarthNet.uav[26] utilizationEnergyOverdrawMission 0
scalar OsgEarthNet.uav[26] utilizationEnergyOverdrawMaintenance 0
scalar OsgEarthNet.uav[26] utilizationCountMissions 49
scalar OsgEarthNet.uav[26] utilizationCountManeuversMission 476
scalar OsgEarthNet.uav[26] utilizationCountManeuversMaintenance 97
scalar OsgEarthNet.uav[26] utilizationCountChargeState 49
scalar OsgEarthNet.uav[26] utilizationCountOverdrawnAfterMission 0
scalar OsgEarthNet.uav[26] utilizationCountIdleState 41
scalar OsgEarthNet.uav[26] utilizationFail 0
scalar OsgEarthNet.uav[26] simulationTime 259200
scalar OsgEarthNet.uav[27] utilizationSecMission 29490.835952302
scalar OsgEarthNet.uav[27] utilizationSecMaintenance 20614.16002558
scalar OsgEarthNet.uav[27] utilizationSecCharge 181827.6879359
scalar OsgEarthNet.uav[27] utilizationSecIdle 27267.315086215
scalar OsgEarthNet.uav[27] utilizationEnergyMission 137846.79243469
scalar OsgEarthNet.uav[27] utilizationEnergyMaintenance 95553.209617615
scalar OsgEarthNet.uav[27] utilizationEnergyCharge 229640.7532959
scalar OsgEarthNet.uav[27] utilizationEnergyOverdrawMission 0
scalar OsgEarthNet.uav[27] utilizationEnergyOverdrawMaintenance 0
scalar OsgEarthNet.uav[27] utilizationCountMissions 51
scalar OsgEarthNet.uav[27] utilizationCountManeuversMission 474
scalar OsgEarthNet.uav[27] utilizationCountManeuversMaintenance 102
scalar OsgEarthNet.uav[27] utilizationCountChargeState 51
scalar OsgEarthNet.uav[27] utilizationCountOverdrawnAfterMission 0
scalar OsgEarthNet.uav[27] utilizationCountIdleState 44
scalar OsgEarthNet.uav[27] utilizationFail 0
scalar OsgEarthNet.uav[27] simulationTime 259200
scalar OsgEarthNet.uav[28] utilizationSecMission 28597.845694831
scalar OsgEarthNet.uav[28] utilizationSecMaintenance 20056.301415841
scalar OsgEarthNet.uav[28] utilizationSecCharge 176209.14652692
scalar OsgEarthNet.uav[28] utilizationSecIdle 34336.705362404
scalar OsgEarthNet.uav[28] utilizationEnergyMission 133230.20484161
scalar OsgEarthNet.uav[28] utilizationEnergyMaintenance 92437.558986664
scalar OsgEarthNet.uav[28] utilizationEnergyCharge 223195.38256836
scalar OsgEarthNet.uav[28] utilizationEnergyOverdrawMission 0
scalar OsgEarthNet.uav[28] utilizationEnergyOverdrawMaintenance 0
scalar OsgEarthNet.uav[28] utilizationCountMissions 49
scalar OsgEarthNet.uav[28] utilizationCountManeuversMission 469
scalar OsgEarthNet.uav[28] utilizationCountManeuversMaintenance 98
scalar OsgEarthNet.uav[28] utilizationCountChargeState 49
scalar OsgEarthNet.uav[28] utilizationCountOverdrawnAfterMission 0
scalar OsgEarthNet.uav[28] utilizationCountIdleState 46
scalar OsgEarthNet.uav[28] utilizationFail 0
scalar OsgEarthNet.uav[28] simulationTime 259200
scalar OsgEarthNet.uav[29] utilizationSecMission 27614.997531415
scalar OsgEarthNet.uav[29] utilizationSecMaintenance 21840.885067856
scalar OsgEarthNet.uav[29] utilizationSecCharge 178882.50649221
scalar OsgEarthNet.uav[29] utilizationSecIdle 30861.609908521
scalar OsgEarthNet.uav[29] utilizationEnergyMission 127957.8212204
scalar OsgEarthNet.uav[29] utilizationEnergyMaintenance 99805.961639404
scalar OsgEarthNet.uav[29] utilizationEnergyCharge 227133.35327148
scalar OsgEarthNet.uav[29] utilizationEnergyOverdrawMission 0
scalar OsgEarthNet.uav[29] utilizationEnergyOverdrawMaintenance 0
scalar OsgEarthNet.uav[29] utilizationCountMissions 50
scalar OsgEarthNet.uav[29] utilizationCountManeuversMission 453
scalar OsgEarthNet.uav[29] utilizationCountManeuversMaintenance 100
scalar OsgEarthNet.uav[29] utilizationCountChargeState 50
scalar OsgEarthNet.uav[29] utilizationCountOverdrawnAfterMission 0
scalar OsgEarthNet.uav[29] utilizationCountIdleState 39
scalar OsgEarthNet.uav[29] utilizationFail 0
scalar OsgEarthNet.uav[29] simulationTime 259200
scalar OsgEarthNet.uav[30] utilizationSecMission 27906.694619929
scalar OsgEarthNet.uav[30] utilizationSecMaintenance 22020.449881136
scalar OsgEarthNet.uav[30] utilizationSecCharge 180820.50402561
scalar OsgEarthNet.uav[30] utilizationSecIdle 28452.350473324
scalar OsgEarthNet.uav[30] utilizationEnergyMission 130970.50388336
scalar OsgEarthNet.uav[30] utilizationEnergyMaintenance 101415.29504776
scalar OsgEarthNet.uav[30] utilizationEnergyCharge 231467.77197266
scalar OsgEarthNet.uav[30] utilizationEnergyOverdrawMission 0
scalar OsgEarthNet.uav[30] utilizationEnergyOverdrawMaintenance 0
scalar OsgEarthNet.uav[30] utilizationCountMissions 50
scalar OsgEarthNet.uav[30] utilizationCountManeuversMission 459
scalar OsgEarthNet.uav[30] utilizationCountManeuversMaintenance 100
scalar OsgEarthNet.uav[30] utilizationCountChargeState 50
scalar OsgEarthNet.uav[30] utilizationCountOverdrawnAfterMission 0
scalar OsgEarthNet.uav[30] utilizationCountIdleState 40
scalar OsgEarthNet.uav[30] utilizationFail 0
scalar OsgEarthNet.uav[30] simulationTime 259200
scalar OsgEarthNet.uav[31] utilizationSecMission 30677.110346112
scalar OsgEarthNet.uav[31] utilizationSecMaintenance 19932.205815424
scalar OsgEarthNet.uav[31] utilizationSecCharge 182401.29883388
scalar OsgEarthNet.uav[31] utilizationSecIdle 26189.384004586
scalar OsgEarthNet.uav[31] utilizationEnergyMission 141839.04228973
scalar OsgEarthNet.uav[31] utilizationEnergyMaintenance 92204.53162384
scalar OsgEarthNet.uav[31] utilizationEnergyCharge 231523.3984375
scalar OsgEarthNet.uav[31] utilizationEnergyOverdrawMission 0
scalar OsgEarthNet.uav[31] utilizationEnergyOverdrawMaintenance 0
scalar OsgEarthNet.uav[31] utilizationCountMissions 51
scalar OsgEarthNet.uav[31] utilizationCountManeuversMission 494
scalar OsgEarthNet.uav[31] utilizationCountManeuversMaintenance 102
scalar OsgEarthNet.uav[31] utilizationCountChargeState 51
scalar OsgEarthNet.uav[31] utilizationCountOverdrawnAfterMission 0
scalar OsgEarthNet.uav[31] utilizationCountIdleState 42
scalar OsgEarthNet.uav[31] utilizationFail 0
scalar OsgEarthNet.uav[31] simulationTime 259200
scalar OsgEarthNet.uav[32] utilizationSecMission 31841.222815023
scalar OsgEarthNet.uav[32] utilizationSecMaintenance 18960.12786062
scalar OsgEarthNet.uav[32] utilizationSecCharge 185490
scalar OsgEarthNet.uav[32] utilizationSecIdle 22908.648324357
scalar OsgEarthNet.uav[32] utilizationEnergyMission 146667.36808014
scalar OsgEarthNet.uav[32] utilizationEnergyMaintenance 86850.277957916
scalar OsgEarthNet.uav[32] utilizationEnergyCharge 233736.93017578
scalar OsgEarthNet.uav[32] utilizationEnergyOverdrawMission 0
scalar OsgEarthNet.uav[32] utilizationEnergyOverdrawMaintenance 0
scalar OsgEarthNet.uav[32] utilizationCountMissions 51
scalar OsgEarthNet.uav[32] utilizationCountManeuversMission 513
scalar OsgEarthNet.uav[32] utilizationCountManeuversMaintenance 102
scalar OsgEarthNet.uav[32] utilizationCountChargeState 51
scalar OsgEarthNet.uav[32] utilizationCountOverdrawnAfterMission 0
scalar OsgEarthNet.uav[32] utilizationCountIdleState 47
scalar OsgEarthNet.uav[32] utilizationFail 0
scalar OsgEarthNet.uav[32] simulationTime 259200
scalar OsgEarthNet.uav[33] utilizationSecMission 28735.791716409
scalar OsgEarthNet.uav[33] utilizationSecMaintenance 23911.274982136
scalar OsgEarthNet.uav[33] utilizationSecCharge 190080.30614067
scalar OsgEarthNet.uav[33] utilizationSecIdle 16472.626160789
scalar OsgEarthNet.uav[33] utilizationEnergyMission 132969.86463928
scalar OsgEarthNet.uav[33] utilizationEnergyMaintenance 110571.89058685
scalar OsgEarthNet.uav[33] utilizationEnergyCharge 241790.98193359
scalar OsgEarthNet.uav[33] utilizationEnergyOverdrawMission 0
scalar OsgEarthNet.uav[33] utilizationEnergyOverdrawMaintenance 0
scalar OsgEarthNet.uav[33] utilizationCountMissions 53
scalar OsgEarthNet.uav[33] utilizationCountManeuversMission 465
scalar OsgEarthNet.uav[33] utilizationCountManeuversMaintenance 106
scalar OsgEarthNet.uav[33] utilizationCountChargeState 53
scalar OsgEarthNet.uav[33] utilizationCountOverdrawnAfterMission 0
scalar OsgEarthNet.uav[33] utilizationCountIdleState 40
scalar OsgEarthNet.uav[33] utilizationFail 0
scalar OsgEarthNet.uav[33] simulationTime 259200
scalar OsgEarthNet.uav[34] utilizationSecMission 30827.199883513
scalar OsgEarthNet.uav[34] utilizationSecMaintenance 21084.650653315
scalar OsgEarthNet.uav[34] utilizationSecCharge 188437.09265921
scalar OsgEarthNet.uav[34] utilizationSecIdle 18851.055803961
scalar OsgEarthNet.uav[34] utilizationEnergyMission 142517.91941071
scalar OsgEarthNet.uav[34] utilizationEnergyMaintenance 97741.966556549
scalar OsgEarthNet.uav[34] utilizationEnergyCharge 240465.43798828
scalar OsgEarthNet.uav[34] utilizationEnergyOverdrawMission 0
scalar OsgEarthNet.uav[34] utilizationEnergyOverdrawMaintenance 0
scalar OsgEarthNet.uav[34] utilizationCountMissions 53
scalar OsgEarthNet.uav[34] utilizationCountManeuversMission 497
scalar OsgEarthNet.uav[34] utilizationCountManeuversMaintenance 106
scalar OsgEarthNet.uav[34] utilizationCountChargeState 53
scalar OsgEarthNet.uav[34] utilizationCountOverdrawnAfterMission 0
scalar OsgEarthNet.uav[34] utilizationCountIdleState 38
scalar OsgEarthNet.uav[34] utilizationFail 0
scalar OsgEarthNet.uav[34] simulationTime 259200
scalar OsgEarthNet.uav[35] utilizationSecMission 29630.677958846
scalar OsgEarthNet.uav[35] utilizationSecMaintenance 23215.194945095
scalar OsgEarthNet.uav[35] utilizationSecCharge 191452.12609606
scalar OsgEarthNet.uav[35] utilizationSecIdle 14902
scalar OsgEarthNet.uav[35] utilizationEnergyMission 135573.90946431
scalar OsgEarthNet.uav[35] utilizationEnergyMaintenance 107681.68344879
scalar OsgEarthNet.uav[35] utilizationEnergyCharge 243377.86743164
scalar OsgEarthNet.uav[35] utilizationEnergyOverdrawMission 0
scalar OsgEarthNet.uav[35] utilizationEnergyOverdrawMaintenance 0
scalar OsgEarthNet.uav[35] utilizationCountMissions 54
scalar OsgEarthNet.uav[35] utilizationCountManeuversMission 476
scalar OsgEarthNet.uav[35] utilizationCountManeuversMaintenance 107
scalar OsgEarthNet.uav[35] utilizationCountChargeState 54
scalar OsgEarthNet.uav[35] utilizationCountOverdrawnAfterMission 0
scalar OsgEarthNet.uav[35] utilizationCountIdleState 41
scalar OsgEarthNet.uav[35] utilizationFail 0
scalar OsgEarthNet.uav[35] simulationTime 259200
scalar OsgEarthNet.uav[36] utilizationSecMission 26619.716939131
scalar OsgEarthNet.uav[36] utilizationSecMaintenance 25507.558887215
scalar OsgEarthNet.uav[36] utilizationSecCharge 190240.27527597
scalar OsgEarthNet.uav[36] utilizationSecIdle 16832.447897685
scalar OsgEarthNet.uav[36] utilizationEnergyMission 123344.14276886
scalar OsgEarthNet.uav[36] utilizationEnergyMaintenance 117855.36814499
scalar OsgEarthNet.uav[36] utilizationEnergyCharge 241285.86083984
scalar OsgEarthNet.uav[36] utilizationEnergyOverdrawMission 0
scalar OsgEarthNet.uav[36] utilizationEnergyOverdrawMaintenance 0
scalar OsgEarthNet.uav[36] utilizationCountMissions 53
scalar OsgEarthNet.uav[36] utilizationCountManeuversMission 436
scalar OsgEarthNet.uav[36] utilizationCountManeuversMaintenance 106
scalar OsgEarthNet.uav[36] utilizationCountChargeState 53
scalar OsgEarthNet.uav[36] utilizationCountOverdrawnAfterMission 0
scalar OsgEarthNet.uav[36] utilizationCountIdleState 38
scalar OsgEarthNet.uav[36] utilizationFail 0
scalar OsgEarthNet.uav[36] simulationTime 259200
scalar OsgEarthNet.uav[37] utilizationSecMission 28373.345143214
scalar OsgEarthNet.uav[37] utilizationSecMaintenance 23354.310295963
scalar OsgEarthNet.uav[37] utilizationSecCharge 188240
scalar OsgEarthNet.uav[37] utilizationSecIdle 19232.343560823
scalar OsgEarthNet.uav[37] utilizationEnergyMission 131174.01882172
scalar OsgEarthNet.uav[37] utilizationEnergyMaintenance 108325.14576466
scalar OsgEarthNet.uav[37] utilizationEnergyCharge 238032.203125
scalar OsgEarthNet.uav[37] utilizationEnergyOverdrawMission 0
scalar OsgEarthNet.uav[37] utilizationEnergyOverdrawMaintenance 0
scalar OsgEarthNet.uav[37] utilizationCountMissions 53
scalar OsgEarthNet.uav[37] utilizationCountManeuversMission 466
scalar OsgEarthNet.uav[37] utilizationCountManeuversMaintenance 107
scalar OsgEarthNet.uav[37] utilizationCountChargeState 53
scalar OsgEarthNet.uav[37] utilizationCountOverdrawnAfterMission 0
scalar OsgEarthNet.uav[37] utilizationCountIdleState 42
scalar OsgEarthNet.uav[37] utilizationFail 0
scalar OsgEarthNet.uav[37] simulationTime 259200
scalar OsgEarthNet.uav[38] utilizationSecMission 30136.477618468
scalar OsgEarthNet.uav[38] utilizationSecMaintenance 22055.706397562
scalar OsgEarthNet.uav[38] utilizationSecCharge 190855.81498397
scalar OsgEarthNet.uav[38] utilizationSecIdle 16152
scalar OsgEarthNet.uav[38] utilizationEnergyMission 139085.41236835
scalar OsgEarthNet.uav[38] utilizationEnergyMaintenance 102400.73533249
scalar OsgEarthNet.uav[38] utilizationEnergyCharge 241774.43359375
scalar OsgEarthNet.uav[38] utilizationEnergyOverdrawMission 0
scalar OsgEarthNet.uav[38] utilizationEnergyOverdrawMaintenance 0
scalar OsgEarthNet.uav[38] utilizationCountMissions 53
scalar OsgEarthNet.uav[38] utilizationCountManeuversMission 490
scalar OsgEarthNet.uav[38] utilizationCountManeuversMaintenance 105
scalar OsgEarthNet.uav[38] utilizationCountChargeState 53
scalar OsgEarthNet.uav[38] utilizationCountOverdrawnAfterMission 0
scalar OsgEarthNet.uav[38] utilizationCountIdleState 41
scalar OsgEarthNet.uav[38] utilizationFail 0
scalar OsgEarthNet.uav[38] simulationTime 259200
scalar OsgEarthNet.uav[39] utilizationSecMission 28679.589355455
scalar OsgEarthNet.uav[39] utilizationSecMaintenance 24207.646710733
scalar OsgEarthNet.uav[39] utilizationSecCharge 191040
scalar OsgEarthNet.uav[39] utilizationSecIdle 15272.762933811
scalar OsgEarthNet.uav[39] utilizationEnergyMission 132946.13533395
scalar OsgEarthNet.uav[39] utilizationEnergyMaintenance 112467.89190292
scalar OsgEarthNet.uav[39] utilizationEnergyCharge 243811.14453125
scalar OsgEarthNet.uav[39] utilizationEnergyOverdrawMission 0
scalar OsgEarthNet.uav[39] utilizationEnergyOverdrawMaintenance 0
scalar OsgEarthNet.uav[39] utilizationCountMissions 53
scalar OsgEarthNet.uav[39] utilizationCountManeuversMission 474
scalar OsgEarthNet.uav[39] utilizationCountManeuversMaintenance 107
scalar OsgEarthNet.uav[39] utilizationCountChargeState 53
scalar OsgEarthNet.uav[39] utilizationCountOverdrawnAfterMission 0
scalar OsgEarthNet.uav[39] utilizationCountIdleState 32
scalar OsgEarthNet.uav[39] utilizationFail 0
scalar OsgEarthNet.uav[39] simulationTime 259200
scalar OsgEarthNet.uav[40] utilizationSecMission 29940.691297919
scalar OsgEarthNet.uav[40] utilizationSecMaintenance 22751.356685882
scalar OsgEarthNet.uav[40] utilizationSecCharge 188460
scalar OsgEarthNet.uav[40] utilizationSecIdle 18047.951016199
scalar OsgEarthNet.uav[40] utilizationEnergyMission 136906.3045689
scalar OsgEarthNet.uav[40] utilizationEnergyMaintenance 105951.81698608
scalar OsgEarthNet.uav[40] utilizationEnergyCharge 239484.8515625
scalar OsgEarthNet.uav[40] utilizationEnergyOverdrawMission 0
scalar OsgEarthNet.uav[40] utilizationEnergyOverdrawMaintenance 0
scalar OsgEarthNet.uav[40] utilizationCountMissions 53
scalar OsgEarthNet.uav[40] utilizationCountManeuversMission 494
scalar OsgEarthNet.uav[40] utilizationCountManeuversMaintenance 107
scalar OsgEarthNet.uav[40] utilizationCountChargeState 53
scalar OsgEarthNet.uav[40] utilizationCountOverdrawnAfterMission 0
scalar OsgEarthNet.uav[40] utilizationCountIdleState 37
scalar OsgEarthNet.uav[40] utilizationFail 0
scalar OsgEarthNet.uav[40] simulationTime 259200
scalar OsgEarthNet.uav[41] utilizationSecMission 28887.274752337
scalar OsgEarthNet.uav[41] utilizationSecMaintenance 24640.151676891
scalar OsgEarthNet.uav[41] utilizationSecCharge 191915.05982152
scalar OsgEarthNet.uav[41] utilizationSecIdle 13757.512749251
scalar OsgEarthNet.uav[41] utilizationEnergyMission 134353.76906586
scalar OsgEarthNet.uav[41] utilizationEnergyMaintenance 115276.88744736
scalar OsgEarthNet.uav[41] utilizationEnergyCharge 245417.99224854
scalar OsgEarthNet.uav[41] utilizationEnergyOverdrawMission 0
scalar OsgEarthNet.uav[41] utilizationEnergyOverdrawMaintenance 0
scalar OsgEarthNet.uav[41] utilizationCountMissions 54
scalar OsgEarthNet.uav[41] utilizationCountManeuversMission 478
scalar OsgEarthNet.uav[41] utilizationCountManeuversMaintenance 108
scalar OsgEarthNet.uav[41] utilizationCountChargeState 54
scalar OsgEarthNet.uav[41] utilizationCountOverdrawnAfterMission 0
scalar OsgEarthNet.uav[41] utilizationCountIdleState 34
scalar OsgEarthNet.uav[41] utilizationFail 0
scalar OsgEarthNet.uav[41] simulationTime 259200
scalar OsgEarthNet.uav[42] utilizationSecMission 31572.968503656
scalar OsgEarthNet.uav[42] utilizationSecMaintenance 22384.1955101
scalar OsgEarthNet.uav[42] utilizationSecCharge 193031.38202753
scalar OsgEarthNet.uav[42] utilizationSecIdle 12211.452958717
scalar OsgEarthNet.uav[42] utilizationEnergyMission 145215.79938126
scalar OsgEarthNet.uav[42] utilizationEnergyMaintenance 103604.81151199
scalar OsgEarthNet.uav[42] utilizationEnergyCharge 245715.43286133
scalar OsgEarthNet.uav[42] utilizationEnergyOverdrawMission 0
scalar OsgEarthNet.uav[42] utilizationEnergyOverdrawMaintenance 0
scalar OsgEarthNet.uav[42] utilizationCountMissions 54
scalar OsgEarthNet.uav[42] utilizationCountManeuversMission 522
scalar OsgEarthNet.uav[42] utilizationCountManeuversMaintenance 108
scalar OsgEarthNet.uav[42] utilizationCountChargeState 54
scalar OsgEarthNet.uav[42] utilizationCountOverdrawnAfterMission 0
scalar OsgEarthNet.uav[42] utilizationCountIdleState 38
scalar OsgEarthNet.uav[42] utilizationFail 0
scalar OsgEarthNet.uav[42] simulationTime 259200
scalar OsgEarthNet.uav[43] utilizationSecMission 30589.564595731
scalar OsgEarthNet.uav[43] utilizationSecMaintenance 22378.768537207
scalar OsgEarthNet.uav[43] utilizationSecCharge 191429.46837624
scalar OsgEarthNet.uav[43] utilizationSecIdle 14802.197490817
scalar OsgEarthNet.uav[43] utilizationEnergyMission 142456.75715256
scalar OsgEarthNet.uav[43] utilizationEnergyMaintenance 103956.22627258
scalar OsgEarthNet.uav[43] utilizationEnergyCharge 243745.16894531
scalar OsgEarthNet.uav[43] utilizationEnergyOverdrawMission 0
scalar OsgEarthNet.uav[43] utilizationEnergyOverdrawMaintenance 0
scalar OsgEarthNet.uav[43] utilizationCountMissions 54
scalar OsgEarthNet.uav[43] utilizationCountManeuversMission 505
scalar OsgEarthNet.uav[43] utilizationCountManeuversMaintenance 108
scalar OsgEarthNet.uav[43] utilizationCountChargeState 54
scalar OsgEarthNet.uav[43] utilizationCountOverdrawnAfterMission 0
scalar OsgEarthNet.uav[43] utilizationCountIdleState 36
scalar OsgEarthNet.uav[43] utilizationFail 0
scalar OsgEarthNet.uav[43] simulationTime 259200
scalar OsgEarthNet.uav[44] utilizationSecMission 30335.709055855
scalar OsgEarthNet.uav[44] utilizationSecMaintenance 24316.621948953
scalar OsgEarthNet.uav[44] utilizationSecCharge 195750.9871873
scalar OsgEarthNet.uav[44] utilizationSecIdle 8796.680807888
scalar OsgEarthNet.uav[44] utilizationEnergyMission 140129.76593399
scalar OsgEarthNet.uav[44] utilizationEnergyMaintenance 113148.77107239
scalar OsgEarthNet.uav[44] utilizationEnergyCharge 249753.09484863
scalar OsgEarthNet.uav[44] utilizationEnergyOverdrawMission 0
scalar OsgEarthNet.uav[44] utilizationEnergyOverdrawMaintenance 0
scalar OsgEarthNet.uav[44] utilizationCountMissions 56
scalar OsgEarthNet.uav[44] utilizationCountManeuversMission 496
scalar OsgEarthNet.uav[44] utilizationCountManeuversMaintenance 112
scalar OsgEarthNet.uav[44] utilizationCountChargeState 56
scalar OsgEarthNet.uav[44] utilizationCountOverdrawnAfterMission 0
scalar OsgEarthNet.uav[44] utilizationCountIdleState 27
scalar OsgEarthNet.uav[44] utilizationFail 0
scalar OsgEarthNet.uav[44] simulationTime 259200
scalar OsgEarthNet.cs[0] usedPower 2281164.7549228
scalar OsgEarthNet.cs[0] chargedPower 2281164.7549228
scalar OsgEarthNet.cs[0] chargedMobileNodes 437
scalar OsgEarthNet.cs[0] reservations 509
scalar OsgEarthNet.cs[1] usedPower 3035395.6361968
scalar OsgEarthNet.cs[1] chargedPower 3035395.6361968
scalar OsgEarthNet.cs[1] chargedMobileNodes 561
scalar OsgEarthNet.cs[1] reservations 660
scalar OsgEarthNet.cs[2] usedPower 4840021.3225589
scalar OsgEarthNet.cs[2] chargedPower 4840021.3225589
scalar OsgEarthNet.cs[2] chargedMobileNodes 925
scalar OsgEarthNet.cs[2] reservations 1070

