version 2
run Szenario_Hotel_Gabelbach-143-20180710-06:12:53-37584
attr configname Szenario_Hotel_Gabelbach
attr datetime 20180710-06:12:53
attr experiment Szenario_Hotel_Gabelbach
attr inifile omnetpp.ini
attr iterationvars "$numUAVs=100, $replM=0"
attr iterationvarsf numUAVs=100,replM=0-
attr measurement "$numUAVs=100, $replM=0"
attr network OsgEarthNet
attr processid 37584
attr repetition 15
attr replication #15
attr resultdir results
attr runnumber 143
attr seedset 143
itervar numUAVs 100
itervar replM 0
param *.osgEarthScene.scene "\"Szenario_Hotel_Gabelbach.earth\""
param *.playgroundLatitude 50.6830269
param *.playgroundLongitude 10.8538055
param *.playgroundWidth 3500m
param *.playgroundHeight 3500m
param *.numCSs 3
param *.cs[0].posX 3537m
param *.cs[0].posY 965m
param *.cs[0].posZ 538m
param *.cs[1].posX 312m
param *.cs[1].posY 1262m
param *.cs[1].posZ 539m
param *.cs[2].posX 2185m
param *.cs[2].posY 3026m
param *.cs[2].posZ 777m
param *.cs[3].posX 10m
param *.cs[3].posY 2200m
param *.cs[3].posZ 560m
param *.cs[4].posX 750m
param *.cs[4].posY 200m
param *.cs[4].posZ 540m
param *.cs[5].posX 2450m
param *.cs[5].posY 180m
param *.cs[5].posZ 524m
param *.cs[6].posX 3140m
param *.cs[6].posY 1790m
param *.cs[6].posZ 606m
param *.numUAVs 100
param *.uav[*].replacementMethod 0
param *.*.timeStep 10s
param *.uav[*].commandPreviewCommandCount 20
param *.missionControl.missionFiles "\"missions\\\\Szenario_WB_Hotel_Gabelbach_Mission_Hotel.waypoints,missions\\\\Szenario_WB_Hotel_Gabelbach_Mission_Kickelhahn.waypoints,missions\\\\Szenario_WB_Hotel_Gabelbach_Mission_Ilmenau_Sportplatz.waypoints,missions\\\\Szenario_WB_Hotel_Gabelbach_Mission_Manebach_Mitte.waypoints,missions\\\\Szenario_WB_Hotel_Gabelbach_Mission_Manebach_Sued.waypoints\""
param *.missionControl.missionFiles "\"missions\\\\Szenario_WB_Hotel_Gabelbach_Mission_Hotel.waypoints,missions\\\\Szenario_WB_Hotel_Gabelbach_Mission_Kickelhahn.waypoints,missions\\\\Szenario_WB_Hotel_Gabelbach_Mission_Ilmenau_Sportplatz.waypoints,missions\\\\Szenario_WB_Hotel_Gabelbach_Mission_Manebach_Mitte.waypoints,missions\\\\Szenario_WB_Hotel_Gabelbach_Mission_Manebach_Sued.waypoints,missions\\\\Szenario_WB_Hotel_Gabelbach_Hover_HoheSchlaufe.waypoints,missions\\\\Szenario_WB_Hotel_Gabelbach_Hover_Kickelhahn.waypoints,missions\\\\Szenario_WB_Hotel_Gabelbach_Hover_Gabelbachskopf.waypoints,missions\\\\Szenario_WB_Hotel_Gabelbach_Hover_Dachskopf.waypoints\""
param *.uav[0].startX 3537m
param *.uav[0].startY 965m
param *.uav[0].startZ 539m
param *.uav[1].startX 312m
param *.uav[1].startY 1262m
param *.uav[1].startZ 540m
param *.uav[2].startX 2185m
param *.uav[2].startY 3026m
param *.uav[2].startZ 778m
param *.uav[3].startX 3537m
param *.uav[3].startY 965m
param *.uav[3].startZ 539m
param *.uav[4].startX 312m
param *.uav[4].startY 1262m
param *.uav[4].startZ 540m
param *.uav[5].startX 2185m
param *.uav[5].startY 3026m
param *.uav[5].startZ 778m
param *.uav[6].startX 3537m
param *.uav[6].startY 965m
param *.uav[6].startZ 539m
param *.uav[7].startX 312m
param *.uav[7].startY 1262m
param *.uav[7].startZ 540m
param *.uav[8].startX 2185m
param *.uav[8].startY 3026m
param *.uav[8].startZ 778m
param *.uav[9].startX 3537m
param *.uav[9].startY 965m
param *.uav[9].startZ 539m
param *.uav[10].startX 3537m
param *.uav[10].startY 965m
param *.uav[10].startZ 539m
param *.uav[11].startX 312m
param *.uav[11].startY 1262m
param *.uav[11].startZ 540m
param *.uav[12].startX 2185m
param *.uav[12].startY 3026m
param *.uav[12].startZ 778m
param *.uav[13].startX 3537m
param *.uav[13].startY 965m
param *.uav[13].startZ 539m
param *.uav[14].startX 312m
param *.uav[14].startY 1262m
param *.uav[14].startZ 540m
param *.uav[15].startX 2185m
param *.uav[15].startY 3026m
param *.uav[15].startZ 778m
param *.uav[16].startX 3537m
param *.uav[16].startY 965m
param *.uav[16].startZ 539m
param *.uav[17].startX 312m
param *.uav[17].startY 1262m
param *.uav[17].startZ 540m
param *.uav[18].startX 2185m
param *.uav[18].startY 3026m
param *.uav[18].startZ 778m
param *.uav[19].startX 3537m
param *.uav[19].startY 965m
param *.uav[19].startZ 539m
param *.uav[20].startX 3537m
param *.uav[20].startY 965m
param *.uav[20].startZ 539m
param *.uav[21].startX 312m
param *.uav[21].startY 1262m
param *.uav[21].startZ 540m
param *.uav[22].startX 2185m
param *.uav[22].startY 3026m
param *.uav[22].startZ 778m
param *.uav[23].startX 3537m
param *.uav[23].startY 965m
param *.uav[23].startZ 539m
param *.uav[24].startX 312m
param *.uav[24].startY 1262m
param *.uav[24].startZ 540m
param *.uav[25].startX 2185m
param *.uav[25].startY 3026m
param *.uav[25].startZ 778m
param *.uav[26].startX 3537m
param *.uav[26].startY 965m
param *.uav[26].startZ 539m
param *.uav[27].startX 312m
param *.uav[27].startY 1262m
param *.uav[27].startZ 540m
param *.uav[28].startX 2185m
param *.uav[28].startY 3026m
param *.uav[28].startZ 778m
param *.uav[29].startX 3537m
param *.uav[29].startY 965m
param *.uav[29].startZ 539m
param *.uav[30].startX 3537m
param *.uav[30].startY 965m
param *.uav[30].startZ 539m
param *.uav[31].startX 312m
param *.uav[31].startY 1262m
param *.uav[31].startZ 540m
param *.uav[32].startX 2185m
param *.uav[32].startY 3026m
param *.uav[32].startZ 778m
param *.uav[33].startX 3537m
param *.uav[33].startY 965m
param *.uav[33].startZ 539m
param *.uav[34].startX 312m
param *.uav[34].startY 1262m
param *.uav[34].startZ 540m
param *.uav[35].startX 2185m
param *.uav[35].startY 3026m
param *.uav[35].startZ 778m
param *.uav[36].startX 3537m
param *.uav[36].startY 965m
param *.uav[36].startZ 539m
param *.uav[37].startX 312m
param *.uav[37].startY 1262m
param *.uav[37].startZ 540m
param *.uav[38].startX 2185m
param *.uav[38].startY 3026m
param *.uav[38].startZ 778m
param *.uav[39].startX 3537m
param *.uav[39].startY 965m
param *.uav[39].startZ 539m
param *.uav[40].startX 3537m
param *.uav[40].startY 965m
param *.uav[40].startZ 539m
param *.uav[41].startX 312m
param *.uav[41].startY 1262m
param *.uav[41].startZ 540m
param *.uav[42].startX 2185m
param *.uav[42].startY 3026m
param *.uav[42].startZ 778m
param *.uav[43].startX 3537m
param *.uav[43].startY 965m
param *.uav[43].startZ 539m
param *.uav[44].startX 312m
param *.uav[44].startY 1262m
param *.uav[44].startZ 540m
param *.uav[45].startX 2185m
param *.uav[45].startY 3026m
param *.uav[45].startZ 778m
param *.uav[46].startX 3537m
param *.uav[46].startY 965m
param *.uav[46].startZ 539m
param *.uav[47].startX 312m
param *.uav[47].startY 1262m
param *.uav[47].startZ 540m
param *.uav[48].startX 2185m
param *.uav[48].startY 3026m
param *.uav[48].startZ 778m
param *.uav[49].startX 3537m
param *.uav[49].startY 965m
param *.uav[49].startZ 539m
param *.uav[50].startX 3537m
param *.uav[50].startY 965m
param *.uav[50].startZ 539m
param *.uav[51].startX 312m
param *.uav[51].startY 1262m
param *.uav[51].startZ 540m
param *.uav[52].startX 2185m
param *.uav[52].startY 3026m
param *.uav[52].startZ 778m
param *.uav[53].startX 3537m
param *.uav[53].startY 965m
param *.uav[53].startZ 539m
param *.uav[54].startX 312m
param *.uav[54].startY 1262m
param *.uav[54].startZ 540m
param *.uav[55].startX 2185m
param *.uav[55].startY 3026m
param *.uav[55].startZ 778m
param *.uav[56].startX 3537m
param *.uav[56].startY 965m
param *.uav[56].startZ 539m
param *.uav[57].startX 312m
param *.uav[57].startY 1262m
param *.uav[57].startZ 540m
param *.uav[58].startX 2185m
param *.uav[58].startY 3026m
param *.uav[58].startZ 778m
param *.uav[59].startX 3537m
param *.uav[59].startY 965m
param *.uav[59].startZ 539m
param *.uav[60].startX 3537m
param *.uav[60].startY 965m
param *.uav[60].startZ 539m
param *.uav[61].startX 312m
param *.uav[61].startY 1262m
param *.uav[61].startZ 540m
param *.uav[62].startX 2185m
param *.uav[62].startY 3026m
param *.uav[62].startZ 778m
param *.uav[63].startX 3537m
param *.uav[63].startY 965m
param *.uav[63].startZ 539m
param *.uav[64].startX 312m
param *.uav[64].startY 1262m
param *.uav[64].startZ 540m
param *.uav[65].startX 2185m
param *.uav[65].startY 3026m
param *.uav[65].startZ 778m
param *.uav[66].startX 3537m
param *.uav[66].startY 965m
param *.uav[66].startZ 539m
param *.uav[67].startX 312m
param *.uav[67].startY 1262m
param *.uav[67].startZ 540m
param *.uav[68].startX 2185m
param *.uav[68].startY 3026m
param *.uav[68].startZ 778m
param *.uav[69].startX 3537m
param *.uav[69].startY 965m
param *.uav[69].startZ 539m
param *.uav[70].startX 3537m
param *.uav[70].startY 965m
param *.uav[70].startZ 539m
param *.uav[71].startX 312m
param *.uav[71].startY 1262m
param *.uav[71].startZ 540m
param *.uav[72].startX 2185m
param *.uav[72].startY 3026m
param *.uav[72].startZ 778m
param *.uav[73].startX 3537m
param *.uav[73].startY 965m
param *.uav[73].startZ 539m
param *.uav[74].startX 312m
param *.uav[74].startY 1262m
param *.uav[74].startZ 540m
param *.uav[75].startX 2185m
param *.uav[75].startY 3026m
param *.uav[75].startZ 778m
param *.uav[76].startX 3537m
param *.uav[76].startY 965m
param *.uav[76].startZ 539m
param *.uav[77].startX 312m
param *.uav[77].startY 1262m
param *.uav[77].startZ 540m
param *.uav[78].startX 2185m
param *.uav[78].startY 3026m
param *.uav[78].startZ 778m
param *.uav[79].startX 3537m
param *.uav[79].startY 965m
param *.uav[79].startZ 539m
param *.uav[80].startX 3537m
param *.uav[80].startY 965m
param *.uav[80].startZ 539m
param *.uav[81].startX 312m
param *.uav[81].startY 1262m
param *.uav[81].startZ 540m
param *.uav[82].startX 2185m
param *.uav[82].startY 3026m
param *.uav[82].startZ 778m
param *.uav[83].startX 3537m
param *.uav[83].startY 965m
param *.uav[83].startZ 539m
param *.uav[84].startX 312m
param *.uav[84].startY 1262m
param *.uav[84].startZ 540m
param *.uav[85].startX 2185m
param *.uav[85].startY 3026m
param *.uav[85].startZ 778m
param *.uav[86].startX 3537m
param *.uav[86].startY 965m
param *.uav[86].startZ 539m
param *.uav[87].startX 312m
param *.uav[87].startY 1262m
param *.uav[87].startZ 540m
param *.uav[88].startX 2185m
param *.uav[88].startY 3026m
param *.uav[88].startZ 778m
param *.uav[89].startX 3537m
param *.uav[89].startY 965m
param *.uav[89].startZ 539m
param *.uav[90].startX 3537m
param *.uav[90].startY 965m
param *.uav[90].startZ 539m
param *.uav[91].startX 312m
param *.uav[91].startY 1262m
param *.uav[91].startZ 540m
param *.uav[92].startX 2185m
param *.uav[92].startY 3026m
param *.uav[92].startZ 778m
param *.uav[93].startX 3537m
param *.uav[93].startY 965m
param *.uav[93].startZ 539m
param *.uav[94].startX 312m
param *.uav[94].startY 1262m
param *.uav[94].startZ 540m
param *.uav[95].startX 2185m
param *.uav[95].startY 3026m
param *.uav[95].startZ 778m
param *.uav[96].startX 3537m
param *.uav[96].startY 965m
param *.uav[96].startZ 539m
param *.uav[97].startX 312m
param *.uav[97].startY 1262m
param *.uav[97].startZ 540m
param *.uav[98].startX 2185m
param *.uav[98].startY 3026m
param *.uav[98].startZ 778m
param *.uav[99].startX 3537m
param *.uav[99].startY 965m
param *.uav[99].startZ 539m
param *.osgEarthScene.scene "\"boston.earth\""
param *.playgroundLatitude 42.3558
param *.playgroundLongitude -71.0677
param *.playgroundWidth 400m
param *.playgroundHeight 200m
param *.channelController.connectionColor "\"#0000FF40\""
param *.channelController.showConnections false
param *.uav[*].modelURL "\"quadrocopter.small.obj.15.scale.0,0,90.rot\""
param *.uav[*].labelColor "\"#FF7C00CC\""
param *.uav[*].label2Color "\"#FF7C00EE\""
param *.uav[*].batteryCapacity 5200mAh
param *.uav[*].batteryRemaining uav[index].batteryCapacity
param *.uav[*].predictionQuantile 0.95
param *.uav[*].replacementMethod 2
param *.uav[*].weightedSumWeight 0.5
param *.cs[*].modelURL "\"chargingstation_v1.osgt.2.scale.0,0,0.rot.0,0,-15e-1.trans\""
param *.cs[*].spotsWaiting 999
param *.cs[*].spotsCharging 999
param *.cs[*].chargeEffectivenessPercentage 100
param *.cs[*].nonLinearPhaseStartPercentage 85
param *.cs[*].chargeCurrent 6.0A
param *.cs[*].prioritizeFastCharge true
param *.missionControl.replacementSearchMethod 0
param *.*.timeStep 9s

scalar OsgEarthNet.uav[0] utilizationSecMission 28427.586988251
scalar OsgEarthNet.uav[0] utilizationSecMaintenance 16357.853082672
scalar OsgEarthNet.uav[0] utilizationSecCharge 163910
scalar OsgEarthNet.uav[0] utilizationSecIdle 50504.558929077
scalar OsgEarthNet.uav[0] utilizationEnergyMission 130879.80887985
scalar OsgEarthNet.uav[0] utilizationEnergyMaintenance 74741.879928589
scalar OsgEarthNet.uav[0] utilizationEnergyCharge 205707.43676758
scalar OsgEarthNet.uav[0] utilizationEnergyOverdrawMission 0
scalar OsgEarthNet.uav[0] utilizationEnergyOverdrawMaintenance 0
scalar OsgEarthNet.uav[0] utilizationCountMissions 45
scalar OsgEarthNet.uav[0] utilizationCountManeuversMission 471
scalar OsgEarthNet.uav[0] utilizationCountManeuversMaintenance 90
scalar OsgEarthNet.uav[0] utilizationCountChargeState 45
scalar OsgEarthNet.uav[0] utilizationCountOverdrawnAfterMission 0
scalar OsgEarthNet.uav[0] utilizationCountIdleState 46
scalar OsgEarthNet.uav[0] utilizationFail 0
scalar OsgEarthNet.uav[0] simulationTime 259200
scalar OsgEarthNet.uav[1] utilizationSecMission 737.00098997322
scalar OsgEarthNet.uav[1] utilizationSecMaintenance 313.26867752287
scalar OsgEarthNet.uav[1] utilizationSecCharge 3880
scalar OsgEarthNet.uav[1] utilizationSecIdle 254269.7293325
scalar OsgEarthNet.uav[1] utilizationEnergyMission 3489.7050552368
scalar OsgEarthNet.uav[1] utilizationEnergyMaintenance 1508.6148796082
scalar OsgEarthNet.uav[1] utilizationEnergyCharge 4998.3203125
scalar OsgEarthNet.uav[1] utilizationEnergyOverdrawMission 0
scalar OsgEarthNet.uav[1] utilizationEnergyOverdrawMaintenance 0
scalar OsgEarthNet.uav[1] utilizationCountMissions 1
scalar OsgEarthNet.uav[1] utilizationCountManeuversMission 14
scalar OsgEarthNet.uav[1] utilizationCountManeuversMaintenance 2
scalar OsgEarthNet.uav[1] utilizationCountChargeState 1
scalar OsgEarthNet.uav[1] utilizationCountOverdrawnAfterMission 0
scalar OsgEarthNet.uav[1] utilizationCountIdleState 2
scalar OsgEarthNet.uav[1] utilizationFail 0
scalar OsgEarthNet.uav[1] simulationTime 259200
scalar OsgEarthNet.uav[2] utilizationSecMission 694.00169469977
scalar OsgEarthNet.uav[2] utilizationSecMaintenance 338.49695459722
scalar OsgEarthNet.uav[2] utilizationSecCharge 3680
scalar OsgEarthNet.uav[2] utilizationSecIdle 254487.5003507
scalar OsgEarthNet.uav[2] utilizationEnergyMission 3219.7190856934
scalar OsgEarthNet.uav[2] utilizationEnergyMaintenance 1400.3602409363
scalar OsgEarthNet.uav[2] utilizationEnergyCharge 4620.08203125
scalar OsgEarthNet.uav[2] utilizationEnergyOverdrawMission 0
scalar OsgEarthNet.uav[2] utilizationEnergyOverdrawMaintenance 0
scalar OsgEarthNet.uav[2] utilizationCountMissions 1
scalar OsgEarthNet.uav[2] utilizationCountManeuversMission 13
scalar OsgEarthNet.uav[2] utilizationCountManeuversMaintenance 2
scalar OsgEarthNet.uav[2] utilizationCountChargeState 1
scalar OsgEarthNet.uav[2] utilizationCountOverdrawnAfterMission 0
scalar OsgEarthNet.uav[2] utilizationCountIdleState 2
scalar OsgEarthNet.uav[2] utilizationFail 0
scalar OsgEarthNet.uav[2] simulationTime 259200
scalar OsgEarthNet.uav[3] utilizationSecMission 3975.970069384
scalar OsgEarthNet.uav[3] utilizationSecMaintenance 2794.8098760237
scalar OsgEarthNet.uav[3] utilizationSecCharge 25470
scalar OsgEarthNet.uav[3] utilizationSecIdle 226959.21905459
scalar OsgEarthNet.uav[3] utilizationEnergyMission 18474.457962036
scalar OsgEarthNet.uav[3] utilizationEnergyMaintenance 13294.835662842
scalar OsgEarthNet.uav[3] utilizationEnergyCharge 31828.886230469
scalar OsgEarthNet.uav[3] utilizationEnergyOverdrawMission 0
scalar OsgEarthNet.uav[3] utilizationEnergyOverdrawMaintenance 0
scalar OsgEarthNet.uav[3] utilizationCountMissions 7
scalar OsgEarthNet.uav[3] utilizationCountManeuversMission 64
scalar OsgEarthNet.uav[3] utilizationCountManeuversMaintenance 14
scalar OsgEarthNet.uav[3] utilizationCountChargeState 7
scalar OsgEarthNet.uav[3] utilizationCountOverdrawnAfterMission 0
scalar OsgEarthNet.uav[3] utilizationCountIdleState 8
scalar OsgEarthNet.uav[3] utilizationFail 0
scalar OsgEarthNet.uav[3] simulationTime 259200
scalar OsgEarthNet.uav[4] utilizationSecMission 651.00239942633
scalar OsgEarthNet.uav[4] utilizationSecMaintenance 335.83102590171
scalar OsgEarthNet.uav[4] utilizationSecCharge 3730
scalar OsgEarthNet.uav[4] utilizationSecIdle 254483.16557467
scalar OsgEarthNet.uav[4] utilizationEnergyMission 3084.3549575806
scalar OsgEarthNet.uav[4] utilizationEnergyMaintenance 1609.9029655457
scalar OsgEarthNet.uav[4] utilizationEnergyCharge 4694.2602539062
scalar OsgEarthNet.uav[4] utilizationEnergyOverdrawMission 0
scalar OsgEarthNet.uav[4] utilizationEnergyOverdrawMaintenance 0
scalar OsgEarthNet.uav[4] utilizationCountMissions 1
scalar OsgEarthNet.uav[4] utilizationCountManeuversMission 12
scalar OsgEarthNet.uav[4] utilizationCountManeuversMaintenance 2
scalar OsgEarthNet.uav[4] utilizationCountChargeState 1
scalar OsgEarthNet.uav[4] utilizationCountOverdrawnAfterMission 0
scalar OsgEarthNet.uav[4] utilizationCountIdleState 2
scalar OsgEarthNet.uav[4] utilizationFail 0
scalar OsgEarthNet.uav[4] simulationTime 259200
scalar OsgEarthNet.uav[5] utilizationSecMission 30876.046745951
scalar OsgEarthNet.uav[5] utilizationSecMaintenance 17366.871675194
scalar OsgEarthNet.uav[5] utilizationSecCharge 174985.08057885
scalar OsgEarthNet.uav[5] utilizationSecIdle 35972
scalar OsgEarthNet.uav[5] utilizationEnergyMission 142107.11127262
scalar OsgEarthNet.uav[5] utilizationEnergyMaintenance 79917.605327606
scalar OsgEarthNet.uav[5] utilizationEnergyCharge 221316.28027344
scalar OsgEarthNet.uav[5] utilizationEnergyOverdrawMission 0
scalar OsgEarthNet.uav[5] utilizationEnergyOverdrawMaintenance 0
scalar OsgEarthNet.uav[5] utilizationCountMissions 48
scalar OsgEarthNet.uav[5] utilizationCountManeuversMission 497
scalar OsgEarthNet.uav[5] utilizationCountManeuversMaintenance 95
scalar OsgEarthNet.uav[5] utilizationCountChargeState 48
scalar OsgEarthNet.uav[5] utilizationCountOverdrawnAfterMission 0
scalar OsgEarthNet.uav[5] utilizationCountIdleState 48
scalar OsgEarthNet.uav[5] utilizationFail 0
scalar OsgEarthNet.uav[5] simulationTime 259200
scalar OsgEarthNet.uav[6] utilizationSecMission 1998.7326042884
scalar OsgEarthNet.uav[6] utilizationSecMaintenance 852.14111343334
scalar OsgEarthNet.uav[6] utilizationSecCharge 10630
scalar OsgEarthNet.uav[6] utilizationSecIdle 245719.12528228
scalar OsgEarthNet.uav[6] utilizationEnergyMission 9073.2799835205
scalar OsgEarthNet.uav[6] utilizationEnergyMaintenance 4070.39894104
scalar OsgEarthNet.uav[6] utilizationEnergyCharge 13143.672851562
scalar OsgEarthNet.uav[6] utilizationEnergyOverdrawMission 0
scalar OsgEarthNet.uav[6] utilizationEnergyOverdrawMaintenance 0
scalar OsgEarthNet.uav[6] utilizationCountMissions 3
scalar OsgEarthNet.uav[6] utilizationCountManeuversMission 30
scalar OsgEarthNet.uav[6] utilizationCountManeuversMaintenance 6
scalar OsgEarthNet.uav[6] utilizationCountChargeState 3
scalar OsgEarthNet.uav[6] utilizationCountOverdrawnAfterMission 0
scalar OsgEarthNet.uav[6] utilizationCountIdleState 4
scalar OsgEarthNet.uav[6] utilizationFail 0
scalar OsgEarthNet.uav[6] simulationTime 259200
scalar OsgEarthNet.uav[7] utilizationSecMission 694.00169469977
scalar OsgEarthNet.uav[7] utilizationSecMaintenance 299.33362405216
scalar OsgEarthNet.uav[7] utilizationSecCharge 3810
scalar OsgEarthNet.uav[7] utilizationSecIdle 254396.66368125
scalar OsgEarthNet.uav[7] utilizationEnergyMission 3434.6360473633
scalar OsgEarthNet.uav[7] utilizationEnergyMaintenance 1409.0807609558
scalar OsgEarthNet.uav[7] utilizationEnergyCharge 4843.7202148438
scalar OsgEarthNet.uav[7] utilizationEnergyOverdrawMission 0
scalar OsgEarthNet.uav[7] utilizationEnergyOverdrawMaintenance 0
scalar OsgEarthNet.uav[7] utilizationCountMissions 1
scalar OsgEarthNet.uav[7] utilizationCountManeuversMission 13
scalar OsgEarthNet.uav[7] utilizationCountManeuversMaintenance 2
scalar OsgEarthNet.uav[7] utilizationCountChargeState 1
scalar OsgEarthNet.uav[7] utilizationCountOverdrawnAfterMission 0
scalar OsgEarthNet.uav[7] utilizationCountIdleState 2
scalar OsgEarthNet.uav[7] utilizationFail 0
scalar OsgEarthNet.uav[7] simulationTime 259200
scalar OsgEarthNet.uav[8] utilizationSecMission 844.68187799363
scalar OsgEarthNet.uav[8] utilizationSecMaintenance 168.94893785192
scalar OsgEarthNet.uav[8] utilizationSecCharge 3770
scalar OsgEarthNet.uav[8] utilizationSecIdle 254416.36818415
scalar OsgEarthNet.uav[8] utilizationEnergyMission 3861.418548584
scalar OsgEarthNet.uav[8] utilizationEnergyMaintenance 662.82239913941
scalar OsgEarthNet.uav[8] utilizationEnergyCharge 4737.6108398438
scalar OsgEarthNet.uav[8] utilizationEnergyOverdrawMission 0
scalar OsgEarthNet.uav[8] utilizationEnergyOverdrawMaintenance 0
scalar OsgEarthNet.uav[8] utilizationCountMissions 1
scalar OsgEarthNet.uav[8] utilizationCountManeuversMission 13
scalar OsgEarthNet.uav[8] utilizationCountManeuversMaintenance 2
scalar OsgEarthNet.uav[8] utilizationCountChargeState 1
scalar OsgEarthNet.uav[8] utilizationCountOverdrawnAfterMission 0
scalar OsgEarthNet.uav[8] utilizationCountIdleState 2
scalar OsgEarthNet.uav[8] utilizationFail 0
scalar OsgEarthNet.uav[8] simulationTime 259200
scalar OsgEarthNet.uav[9] utilizationSecMission 565.71397762921
scalar OsgEarthNet.uav[9] utilizationSecMaintenance 451.12518418039
scalar OsgEarthNet.uav[9] utilizationSecCharge 3580
scalar OsgEarthNet.uav[9] utilizationSecIdle 254603.15983819
scalar OsgEarthNet.uav[9] utilizationEnergyMission 2569.2232666016
scalar OsgEarthNet.uav[9] utilizationEnergyMaintenance 1939.5426139832
scalar OsgEarthNet.uav[9] utilizationEnergyCharge 4508.771484375
scalar OsgEarthNet.uav[9] utilizationEnergyOverdrawMission 0
scalar OsgEarthNet.uav[9] utilizationEnergyOverdrawMaintenance 0
scalar OsgEarthNet.uav[9] utilizationCountMissions 1
scalar OsgEarthNet.uav[9] utilizationCountManeuversMission 9
scalar OsgEarthNet.uav[9] utilizationCountManeuversMaintenance 2
scalar OsgEarthNet.uav[9] utilizationCountChargeState 1
scalar OsgEarthNet.uav[9] utilizationCountOverdrawnAfterMission 0
scalar OsgEarthNet.uav[9] utilizationCountIdleState 2
scalar OsgEarthNet.uav[9] utilizationFail 0
scalar OsgEarthNet.uav[9] simulationTime 259200
scalar OsgEarthNet.uav[10] utilizationSecMission 623.68863475643
scalar OsgEarthNet.uav[10] utilizationSecMaintenance 394.94199877579
scalar OsgEarthNet.uav[10] utilizationSecCharge 3740
scalar OsgEarthNet.uav[10] utilizationSecIdle 254441.36836647
scalar OsgEarthNet.uav[10] utilizationEnergyMission 2743.4364013672
scalar OsgEarthNet.uav[10] utilizationEnergyMaintenance 1834.2432785034
scalar OsgEarthNet.uav[10] utilizationEnergyCharge 4674.0893554688
scalar OsgEarthNet.uav[10] utilizationEnergyOverdrawMission 0
scalar OsgEarthNet.uav[10] utilizationEnergyOverdrawMaintenance 0
scalar OsgEarthNet.uav[10] utilizationCountMissions 1
scalar OsgEarthNet.uav[10] utilizationCountManeuversMission 10
scalar OsgEarthNet.uav[10] utilizationCountManeuversMaintenance 2
scalar OsgEarthNet.uav[10] utilizationCountChargeState 1
scalar OsgEarthNet.uav[10] utilizationCountOverdrawnAfterMission 0
scalar OsgEarthNet.uav[10] utilizationCountIdleState 2
scalar OsgEarthNet.uav[10] utilizationFail 0
scalar OsgEarthNet.uav[10] simulationTime 259200
scalar OsgEarthNet.uav[11] utilizationSecMission 1194.9755414506
scalar OsgEarthNet.uav[11] utilizationSecMaintenance 744.23949568464
scalar OsgEarthNet.uav[11] utilizationSecCharge 7420
scalar OsgEarthNet.uav[11] utilizationSecIdle 249840.78396286
scalar OsgEarthNet.uav[11] utilizationEnergyMission 5794.6948852539
scalar OsgEarthNet.uav[11] utilizationEnergyMaintenance 3532.4301185608
scalar OsgEarthNet.uav[11] utilizationEnergyCharge 9327.1220703125
scalar OsgEarthNet.uav[11] utilizationEnergyOverdrawMission 0
scalar OsgEarthNet.uav[11] utilizationEnergyOverdrawMaintenance 0
scalar OsgEarthNet.uav[11] utilizationCountMissions 2
scalar OsgEarthNet.uav[11] utilizationCountManeuversMission 21
scalar OsgEarthNet.uav[11] utilizationCountManeuversMaintenance 4
scalar OsgEarthNet.uav[11] utilizationCountChargeState 2
scalar OsgEarthNet.uav[11] utilizationCountOverdrawnAfterMission 0
scalar OsgEarthNet.uav[11] utilizationCountIdleState 3
scalar OsgEarthNet.uav[11] utilizationFail 0
scalar OsgEarthNet.uav[11] simulationTime 259200
scalar OsgEarthNet.uav[12] utilizationSecMission 887.1741082606
scalar OsgEarthNet.uav[12] utilizationSecMaintenance 171.13387461676
scalar OsgEarthNet.uav[12] utilizationSecCharge 3800
scalar OsgEarthNet.uav[12] utilizationSecIdle 254341.69101712
scalar OsgEarthNet.uav[12] utilizationEnergyMission 4078.4574584961
scalar OsgEarthNet.uav[12] utilizationEnergyMaintenance 766.23754119873
scalar OsgEarthNet.uav[12] utilizationEnergyCharge 4825.9897460938
scalar OsgEarthNet.uav[12] utilizationEnergyOverdrawMission 0
scalar OsgEarthNet.uav[12] utilizationEnergyOverdrawMaintenance 0
scalar OsgEarthNet.uav[12] utilizationCountMissions 1
scalar OsgEarthNet.uav[12] utilizationCountManeuversMission 14
scalar OsgEarthNet.uav[12] utilizationCountManeuversMaintenance 2
scalar OsgEarthNet.uav[12] utilizationCountChargeState 1
scalar OsgEarthNet.uav[12] utilizationCountOverdrawnAfterMission 0
scalar OsgEarthNet.uav[12] utilizationCountIdleState 2
scalar OsgEarthNet.uav[12] utilizationFail 0
scalar OsgEarthNet.uav[12] simulationTime 259200
scalar OsgEarthNet.uav[13] utilizationSecMission 30177.323735991
scalar OsgEarthNet.uav[13] utilizationSecMaintenance 17190.731803271
scalar OsgEarthNet.uav[13] utilizationSecCharge 172169.94346074
scalar OsgEarthNet.uav[13] utilizationSecIdle 39662
scalar OsgEarthNet.uav[13] utilizationEnergyMission 138507.5969696
scalar OsgEarthNet.uav[13] utilizationEnergyMaintenance 80778.254692078
scalar OsgEarthNet.uav[13] utilizationEnergyCharge 216684.49554443
scalar OsgEarthNet.uav[13] utilizationEnergyOverdrawMission 0
scalar OsgEarthNet.uav[13] utilizationEnergyOverdrawMaintenance 0
scalar OsgEarthNet.uav[13] utilizationCountMissions 48
scalar OsgEarthNet.uav[13] utilizationCountManeuversMission 489
scalar OsgEarthNet.uav[13] utilizationCountManeuversMaintenance 95
scalar OsgEarthNet.uav[13] utilizationCountChargeState 48
scalar OsgEarthNet.uav[13] utilizationCountOverdrawnAfterMission 0
scalar OsgEarthNet.uav[13] utilizationCountIdleState 48
scalar OsgEarthNet.uav[13] utilizationFail 0
scalar OsgEarthNet.uav[13] simulationTime 259200
scalar OsgEarthNet.uav[14] utilizationSecMission 2520.0738736113
scalar OsgEarthNet.uav[14] utilizationSecMaintenance 2365.555723787
scalar OsgEarthNet.uav[14] utilizationSecCharge 17850
scalar OsgEarthNet.uav[14] utilizationSecIdle 236464.3694026
scalar OsgEarthNet.uav[14] utilizationEnergyMission 11564.238830566
scalar OsgEarthNet.uav[14] utilizationEnergyMaintenance 10560.189571381
scalar OsgEarthNet.uav[14] utilizationEnergyCharge 22124.419433594
scalar OsgEarthNet.uav[14] utilizationEnergyOverdrawMission 0
scalar OsgEarthNet.uav[14] utilizationEnergyOverdrawMaintenance 0
scalar OsgEarthNet.uav[14] utilizationCountMissions 5
scalar OsgEarthNet.uav[14] utilizationCountManeuversMission 40
scalar OsgEarthNet.uav[14] utilizationCountManeuversMaintenance 10
scalar OsgEarthNet.uav[14] utilizationCountChargeState 5
scalar OsgEarthNet.uav[14] utilizationCountOverdrawnAfterMission 0
scalar OsgEarthNet.uav[14] utilizationCountIdleState 6
scalar OsgEarthNet.uav[14] utilizationFail 0
scalar OsgEarthNet.uav[14] simulationTime 259200
scalar OsgEarthNet.uav[15] utilizationSecMission 750.20472747826
scalar OsgEarthNet.uav[15] utilizationSecMaintenance 255.5651663541
scalar OsgEarthNet.uav[15] utilizationSecCharge 3710
scalar OsgEarthNet.uav[15] utilizationSecIdle 254484.22910617
scalar OsgEarthNet.uav[15] utilizationEnergyMission 3458.6884613037
scalar OsgEarthNet.uav[15] utilizationEnergyMaintenance 1174.7598381042
scalar OsgEarthNet.uav[15] utilizationEnergyCharge 4633.447265625
scalar OsgEarthNet.uav[15] utilizationEnergyOverdrawMission 0
scalar OsgEarthNet.uav[15] utilizationEnergyOverdrawMaintenance 0
scalar OsgEarthNet.uav[15] utilizationCountMissions 1
scalar OsgEarthNet.uav[15] utilizationCountManeuversMission 11
scalar OsgEarthNet.uav[15] utilizationCountManeuversMaintenance 2
scalar OsgEarthNet.uav[15] utilizationCountChargeState 1
scalar OsgEarthNet.uav[15] utilizationCountOverdrawnAfterMission 0
scalar OsgEarthNet.uav[15] utilizationCountIdleState 2
scalar OsgEarthNet.uav[15] utilizationFail 0
scalar OsgEarthNet.uav[15] simulationTime 259200
scalar OsgEarthNet.uav[16] utilizationSecMission 2298.4861967419
scalar OsgEarthNet.uav[16] utilizationSecMaintenance 659.34154790909
scalar OsgEarthNet.uav[16] utilizationSecCharge 11320
scalar OsgEarthNet.uav[16] utilizationSecIdle 244922.17125535
scalar OsgEarthNet.uav[16] utilizationEnergyMission 10971.290039062
scalar OsgEarthNet.uav[16] utilizationEnergyMaintenance 3265.0564727783
scalar OsgEarthNet.uav[16] utilizationEnergyCharge 14346.942871094
scalar OsgEarthNet.uav[16] utilizationEnergyOverdrawMission 0
scalar OsgEarthNet.uav[16] utilizationEnergyOverdrawMaintenance 0
scalar OsgEarthNet.uav[16] utilizationCountMissions 3
scalar OsgEarthNet.uav[16] utilizationCountManeuversMission 35
scalar OsgEarthNet.uav[16] utilizationCountManeuversMaintenance 6
scalar OsgEarthNet.uav[16] utilizationCountChargeState 3
scalar OsgEarthNet.uav[16] utilizationCountOverdrawnAfterMission 0
scalar OsgEarthNet.uav[16] utilizationCountIdleState 4
scalar OsgEarthNet.uav[16] utilizationFail 0
scalar OsgEarthNet.uav[16] simulationTime 259200
scalar OsgEarthNet.uav[17] utilizationSecMission 11904.382825083
scalar OsgEarthNet.uav[17] utilizationSecMaintenance 8627.2748495207
scalar OsgEarthNet.uav[17] utilizationSecCharge 76040
scalar OsgEarthNet.uav[17] utilizationSecIdle 162628.3413254
scalar OsgEarthNet.uav[17] utilizationEnergyMission 55149.691246033
scalar OsgEarthNet.uav[17] utilizationEnergyMaintenance 39889.590171814
scalar OsgEarthNet.uav[17] utilizationEnergyCharge 95114.91796875
scalar OsgEarthNet.uav[17] utilizationEnergyOverdrawMission 0
scalar OsgEarthNet.uav[17] utilizationEnergyOverdrawMaintenance 0
scalar OsgEarthNet.uav[17] utilizationCountMissions 21
scalar OsgEarthNet.uav[17] utilizationCountManeuversMission 202
scalar OsgEarthNet.uav[17] utilizationCountManeuversMaintenance 42
scalar OsgEarthNet.uav[17] utilizationCountChargeState 21
scalar OsgEarthNet.uav[17] utilizationCountOverdrawnAfterMission 0
scalar OsgEarthNet.uav[17] utilizationCountIdleState 22
scalar OsgEarthNet.uav[17] utilizationFail 0
scalar OsgEarthNet.uav[17] simulationTime 259200
scalar OsgEarthNet.uav[18] utilizationSecMission 750.20472747826
scalar OsgEarthNet.uav[18] utilizationSecMaintenance 255.5651663541
scalar OsgEarthNet.uav[18] utilizationSecCharge 3740
scalar OsgEarthNet.uav[18] utilizationSecIdle 254454.22910617
scalar OsgEarthNet.uav[18] utilizationEnergyMission 3494.7642669678
scalar OsgEarthNet.uav[18] utilizationEnergyMaintenance 1184.8204460144
scalar OsgEarthNet.uav[18] utilizationEnergyCharge 4679.5864257812
scalar OsgEarthNet.uav[18] utilizationEnergyOverdrawMission 0
scalar OsgEarthNet.uav[18] utilizationEnergyOverdrawMaintenance 0
scalar OsgEarthNet.uav[18] utilizationCountMissions 1
scalar OsgEarthNet.uav[18] utilizationCountManeuversMission 11
scalar OsgEarthNet.uav[18] utilizationCountManeuversMaintenance 2
scalar OsgEarthNet.uav[18] utilizationCountChargeState 1
scalar OsgEarthNet.uav[18] utilizationCountOverdrawnAfterMission 0
scalar OsgEarthNet.uav[18] utilizationCountIdleState 2
scalar OsgEarthNet.uav[18] utilizationFail 0
scalar OsgEarthNet.uav[18] simulationTime 259200
scalar OsgEarthNet.uav[19] utilizationSecMission 373.94967439012
scalar OsgEarthNet.uav[19] utilizationSecMaintenance 543.19538685173
scalar OsgEarthNet.uav[19] utilizationSecCharge 3580
scalar OsgEarthNet.uav[19] utilizationSecIdle 254702.85393876
scalar OsgEarthNet.uav[19] utilizationEnergyMission 1817.1770935059
scalar OsgEarthNet.uav[19] utilizationEnergyMaintenance 2700.4415512085
scalar OsgEarthNet.uav[19] utilizationEnergyCharge 4517.6186523438
scalar OsgEarthNet.uav[19] utilizationEnergyOverdrawMission 0
scalar OsgEarthNet.uav[19] utilizationEnergyOverdrawMaintenance 0
scalar OsgEarthNet.uav[19] utilizationCountMissions 1
scalar OsgEarthNet.uav[19] utilizationCountManeuversMission 6
scalar OsgEarthNet.uav[19] utilizationCountManeuversMaintenance 2
scalar OsgEarthNet.uav[19] utilizationCountChargeState 1
scalar OsgEarthNet.uav[19] utilizationCountOverdrawnAfterMission 0
scalar OsgEarthNet.uav[19] utilizationCountIdleState 2
scalar OsgEarthNet.uav[19] utilizationFail 0
scalar OsgEarthNet.uav[19] simulationTime 259200
scalar OsgEarthNet.uav[20] utilizationSecMission 23545.055611797
scalar OsgEarthNet.uav[20] utilizationSecMaintenance 16933.629402977
scalar OsgEarthNet.uav[20] utilizationSecCharge 147295.93592537
scalar OsgEarthNet.uav[20] utilizationSecIdle 71425.378059855
scalar OsgEarthNet.uav[20] utilizationEnergyMission 108591.98099518
scalar OsgEarthNet.uav[20] utilizationEnergyMaintenance 79325.312900543
scalar OsgEarthNet.uav[20] utilizationEnergyCharge 185438.20703125
scalar OsgEarthNet.uav[20] utilizationEnergyOverdrawMission 0
scalar OsgEarthNet.uav[20] utilizationEnergyOverdrawMaintenance 0
scalar OsgEarthNet.uav[20] utilizationCountMissions 41
scalar OsgEarthNet.uav[20] utilizationCountManeuversMission 389
scalar OsgEarthNet.uav[20] utilizationCountManeuversMaintenance 82
scalar OsgEarthNet.uav[20] utilizationCountChargeState 41
scalar OsgEarthNet.uav[20] utilizationCountOverdrawnAfterMission 0
scalar OsgEarthNet.uav[20] utilizationCountIdleState 41
scalar OsgEarthNet.uav[20] utilizationFail 0
scalar OsgEarthNet.uav[20] simulationTime 259200
scalar OsgEarthNet.uav[21] utilizationSecMission 454.19906291044
scalar OsgEarthNet.uav[21] utilizationSecMaintenance 531.61543982806
scalar OsgEarthNet.uav[21] utilizationSecCharge 3710
scalar OsgEarthNet.uav[21] utilizationSecIdle 254504.18449726
scalar OsgEarthNet.uav[21] utilizationEnergyMission 2315.8203582764
scalar OsgEarthNet.uav[21] utilizationEnergyMaintenance 2372.6947860718
scalar OsgEarthNet.uav[21] utilizationEnergyCharge 4688.515625
scalar OsgEarthNet.uav[21] utilizationEnergyOverdrawMission 0
scalar OsgEarthNet.uav[21] utilizationEnergyOverdrawMaintenance 0
scalar OsgEarthNet.uav[21] utilizationCountMissions 1
scalar OsgEarthNet.uav[21] utilizationCountManeuversMission 8
scalar OsgEarthNet.uav[21] utilizationCountManeuversMaintenance 2
scalar OsgEarthNet.uav[21] utilizationCountChargeState 1
scalar OsgEarthNet.uav[21] utilizationCountOverdrawnAfterMission 0
scalar OsgEarthNet.uav[21] utilizationCountIdleState 2
scalar OsgEarthNet.uav[21] utilizationFail 0
scalar OsgEarthNet.uav[21] simulationTime 259200
scalar OsgEarthNet.uav[22] utilizationSecMission 24446.945958608
scalar OsgEarthNet.uav[22] utilizationSecMaintenance 14744.786831714
scalar OsgEarthNet.uav[22] utilizationSecCharge 145120
scalar OsgEarthNet.uav[22] utilizationSecIdle 74888.266209678
scalar OsgEarthNet.uav[22] utilizationEnergyMission 113192.54103088
scalar OsgEarthNet.uav[22] utilizationEnergyMaintenance 68680.892192841
scalar OsgEarthNet.uav[22] utilizationEnergyCharge 181674.90844727
scalar OsgEarthNet.uav[22] utilizationEnergyOverdrawMission 0
scalar OsgEarthNet.uav[22] utilizationEnergyOverdrawMaintenance 0
scalar OsgEarthNet.uav[22] utilizationCountMissions 40
scalar OsgEarthNet.uav[22] utilizationCountManeuversMission 385
scalar OsgEarthNet.uav[22] utilizationCountManeuversMaintenance 80
scalar OsgEarthNet.uav[22] utilizationCountChargeState 40
scalar OsgEarthNet.uav[22] utilizationCountOverdrawnAfterMission 0
scalar OsgEarthNet.uav[22] utilizationCountIdleState 41
scalar OsgEarthNet.uav[22] utilizationFail 0
scalar OsgEarthNet.uav[22] simulationTime 259200
scalar OsgEarthNet.uav[23] utilizationSecMission 471.72113296608
scalar OsgEarthNet.uav[23] utilizationSecMaintenance 600.12463255798
scalar OsgEarthNet.uav[23] utilizationSecCharge 3750
scalar OsgEarthNet.uav[23] utilizationSecIdle 254378.15323448
scalar OsgEarthNet.uav[23] utilizationEnergyMission 1912.5990142822
scalar OsgEarthNet.uav[23] utilizationEnergyMaintenance 2866.6534538269
scalar OsgEarthNet.uav[23] utilizationEnergyCharge 4779.255859375
scalar OsgEarthNet.uav[23] utilizationEnergyOverdrawMission 0
scalar OsgEarthNet.uav[23] utilizationEnergyOverdrawMaintenance 0
scalar OsgEarthNet.uav[23] utilizationCountMissions 1
scalar OsgEarthNet.uav[23] utilizationCountManeuversMission 8
scalar OsgEarthNet.uav[23] utilizationCountManeuversMaintenance 2
scalar OsgEarthNet.uav[23] utilizationCountChargeState 1
scalar OsgEarthNet.uav[23] utilizationCountOverdrawnAfterMission 0
scalar OsgEarthNet.uav[23] utilizationCountIdleState 2
scalar OsgEarthNet.uav[23] utilizationFail 0
scalar OsgEarthNet.uav[23] simulationTime 259200
scalar OsgEarthNet.uav[24] utilizationSecMission 18474.506939589
scalar OsgEarthNet.uav[24] utilizationSecMaintenance 11944.350544079
scalar OsgEarthNet.uav[24] utilizationSecCharge 109910
scalar OsgEarthNet.uav[24] utilizationSecIdle 118871.14151633
scalar OsgEarthNet.uav[24] utilizationEnergyMission 85582.773809245
scalar OsgEarthNet.uav[24] utilizationEnergyMaintenance 54931.781822205
scalar OsgEarthNet.uav[24] utilizationEnergyCharge 138018.84082031
scalar OsgEarthNet.uav[24] utilizationEnergyOverdrawMission 0
scalar OsgEarthNet.uav[24] utilizationEnergyOverdrawMaintenance 0
scalar OsgEarthNet.uav[24] utilizationCountMissions 30
scalar OsgEarthNet.uav[24] utilizationCountManeuversMission 296
scalar OsgEarthNet.uav[24] utilizationCountManeuversMaintenance 61
scalar OsgEarthNet.uav[24] utilizationCountChargeState 30
scalar OsgEarthNet.uav[24] utilizationCountOverdrawnAfterMission 0
scalar OsgEarthNet.uav[24] utilizationCountIdleState 31
scalar OsgEarthNet.uav[24] utilizationFail 0
scalar OsgEarthNet.uav[24] simulationTime 259200
scalar OsgEarthNet.uav[25] utilizationSecMission 750.20472747826
scalar OsgEarthNet.uav[25] utilizationSecMaintenance 255.5651663541
scalar OsgEarthNet.uav[25] utilizationSecCharge 3560
scalar OsgEarthNet.uav[25] utilizationSecIdle 254634.22910617
scalar OsgEarthNet.uav[25] utilizationEnergyMission 3383.9388885498
scalar OsgEarthNet.uav[25] utilizationEnergyMaintenance 1040.7163505554
scalar OsgEarthNet.uav[25] utilizationEnergyCharge 4424.6557617188
scalar OsgEarthNet.uav[25] utilizationEnergyOverdrawMission 0
scalar OsgEarthNet.uav[25] utilizationEnergyOverdrawMaintenance 0
scalar OsgEarthNet.uav[25] utilizationCountMissions 1
scalar OsgEarthNet.uav[25] utilizationCountManeuversMission 11
scalar OsgEarthNet.uav[25] utilizationCountManeuversMaintenance 2
scalar OsgEarthNet.uav[25] utilizationCountChargeState 1
scalar OsgEarthNet.uav[25] utilizationCountOverdrawnAfterMission 0
scalar OsgEarthNet.uav[25] utilizationCountIdleState 2
scalar OsgEarthNet.uav[25] utilizationFail 0
scalar OsgEarthNet.uav[25] simulationTime 259200
scalar OsgEarthNet.uav[26] utilizationSecMission 313.66140879233
scalar OsgEarthNet.uav[26] utilizationSecMaintenance 473.03391658586
scalar OsgEarthNet.uav[26] utilizationSecCharge 3270
scalar OsgEarthNet.uav[26] utilizationSecIdle 255143.30367462
scalar OsgEarthNet.uav[26] utilizationEnergyMission 1607.500213623
scalar OsgEarthNet.uav[26] utilizationEnergyMaintenance 2302.4536972046
scalar OsgEarthNet.uav[26] utilizationEnergyCharge 3909.9558105469
scalar OsgEarthNet.uav[26] utilizationEnergyOverdrawMission 0
scalar OsgEarthNet.uav[26] utilizationEnergyOverdrawMaintenance 0
scalar OsgEarthNet.uav[26] utilizationCountMissions 1
scalar OsgEarthNet.uav[26] utilizationCountManeuversMission 5
scalar OsgEarthNet.uav[26] utilizationCountManeuversMaintenance 2
scalar OsgEarthNet.uav[26] utilizationCountChargeState 1
scalar OsgEarthNet.uav[26] utilizationCountOverdrawnAfterMission 0
scalar OsgEarthNet.uav[26] utilizationCountIdleState 2
scalar OsgEarthNet.uav[26] utilizationFail 0
scalar OsgEarthNet.uav[26] simulationTime 259200
scalar OsgEarthNet.uav[27] utilizationSecMission 6995.7260123073
scalar OsgEarthNet.uav[27] utilizationSecMaintenance 4975.5466593951
scalar OsgEarthNet.uav[27] utilizationSecCharge 43490
scalar OsgEarthNet.uav[27] utilizationSecIdle 203738.7263283
scalar OsgEarthNet.uav[27] utilizationEnergyMission 31567.537567139
scalar OsgEarthNet.uav[27] utilizationEnergyMaintenance 22825.726364136
scalar OsgEarthNet.uav[27] utilizationEnergyCharge 54419.345703125
scalar OsgEarthNet.uav[27] utilizationEnergyOverdrawMission 0
scalar OsgEarthNet.uav[27] utilizationEnergyOverdrawMaintenance 0
scalar OsgEarthNet.uav[27] utilizationCountMissions 12
scalar OsgEarthNet.uav[27] utilizationCountManeuversMission 112
scalar OsgEarthNet.uav[27] utilizationCountManeuversMaintenance 24
scalar OsgEarthNet.uav[27] utilizationCountChargeState 12
scalar OsgEarthNet.uav[27] utilizationCountOverdrawnAfterMission 0
scalar OsgEarthNet.uav[27] utilizationCountIdleState 13
scalar OsgEarthNet.uav[27] utilizationFail 0
scalar OsgEarthNet.uav[27] simulationTime 259200
scalar OsgEarthNet.uav[28] utilizationSecMission 29677.689126724
scalar OsgEarthNet.uav[28] utilizationSecMaintenance 18020.147606736
scalar OsgEarthNet.uav[28] utilizationSecCharge 176370.16226654
scalar OsgEarthNet.uav[28] utilizationSecIdle 35132
scalar OsgEarthNet.uav[28] utilizationEnergyMission 138385.55285093
scalar OsgEarthNet.uav[28] utilizationEnergyMaintenance 84052.522842407
scalar OsgEarthNet.uav[28] utilizationEnergyCharge 222103.50048828
scalar OsgEarthNet.uav[28] utilizationEnergyOverdrawMission 0
scalar OsgEarthNet.uav[28] utilizationEnergyOverdrawMaintenance 0
scalar OsgEarthNet.uav[28] utilizationCountMissions 48
scalar OsgEarthNet.uav[28] utilizationCountManeuversMission 476
scalar OsgEarthNet.uav[28] utilizationCountManeuversMaintenance 95
scalar OsgEarthNet.uav[28] utilizationCountChargeState 48
scalar OsgEarthNet.uav[28] utilizationCountOverdrawnAfterMission 0
scalar OsgEarthNet.uav[28] utilizationCountIdleState 48
scalar OsgEarthNet.uav[28] utilizationFail 0
scalar OsgEarthNet.uav[28] simulationTime 259200
scalar OsgEarthNet.uav[29] utilizationSecMission 18664.338688836
scalar OsgEarthNet.uav[29] utilizationSecMaintenance 13780.652697967
scalar OsgEarthNet.uav[29] utilizationSecCharge 119288.37724895
scalar OsgEarthNet.uav[29] utilizationSecIdle 107466.63036424
scalar OsgEarthNet.uav[29] utilizationEnergyMission 86451.787414551
scalar OsgEarthNet.uav[29] utilizationEnergyMaintenance 63909.967277527
scalar OsgEarthNet.uav[29] utilizationEnergyCharge 149955.09448242
scalar OsgEarthNet.uav[29] utilizationEnergyOverdrawMission 0
scalar OsgEarthNet.uav[29] utilizationEnergyOverdrawMaintenance 0
scalar OsgEarthNet.uav[29] utilizationCountMissions 33
scalar OsgEarthNet.uav[29] utilizationCountManeuversMission 306
scalar OsgEarthNet.uav[29] utilizationCountManeuversMaintenance 66
scalar OsgEarthNet.uav[29] utilizationCountChargeState 33
scalar OsgEarthNet.uav[29] utilizationCountOverdrawnAfterMission 0
scalar OsgEarthNet.uav[29] utilizationCountIdleState 33
scalar OsgEarthNet.uav[29] utilizationFail 0
scalar OsgEarthNet.uav[29] simulationTime 259200
scalar OsgEarthNet.uav[30] utilizationSecMission 545.05972348896
scalar OsgEarthNet.uav[30] utilizationSecMaintenance 427.36308650536
scalar OsgEarthNet.uav[30] utilizationSecCharge 3880
scalar OsgEarthNet.uav[30] utilizationSecIdle 254347.57619001
scalar OsgEarthNet.uav[30] utilizationEnergyMission 2667.1435852051
scalar OsgEarthNet.uav[30] utilizationEnergyMaintenance 2211.5907516479
scalar OsgEarthNet.uav[30] utilizationEnergyCharge 5012.0092773438
scalar OsgEarthNet.uav[30] utilizationEnergyOverdrawMission 0
scalar OsgEarthNet.uav[30] utilizationEnergyOverdrawMaintenance 0
scalar OsgEarthNet.uav[30] utilizationCountMissions 1
scalar OsgEarthNet.uav[30] utilizationCountManeuversMission 9
scalar OsgEarthNet.uav[30] utilizationCountManeuversMaintenance 2
scalar OsgEarthNet.uav[30] utilizationCountChargeState 1
scalar OsgEarthNet.uav[30] utilizationCountOverdrawnAfterMission 0
scalar OsgEarthNet.uav[30] utilizationCountIdleState 2
scalar OsgEarthNet.uav[30] utilizationFail 0
scalar OsgEarthNet.uav[30] simulationTime 259200
scalar OsgEarthNet.uav[31] utilizationSecMission 655.55330183502
scalar OsgEarthNet.uav[31] utilizationSecMaintenance 334.5505930207
scalar OsgEarthNet.uav[31] utilizationSecCharge 3820
scalar OsgEarthNet.uav[31] utilizationSecIdle 254389.89510514
scalar OsgEarthNet.uav[31] utilizationEnergyMission 3056.3990020752
scalar OsgEarthNet.uav[31] utilizationEnergyMaintenance 1800.5709953308
scalar OsgEarthNet.uav[31] utilizationEnergyCharge 4856.96484375
scalar OsgEarthNet.uav[31] utilizationEnergyOverdrawMission 0
scalar OsgEarthNet.uav[31] utilizationEnergyOverdrawMaintenance 0
scalar OsgEarthNet.uav[31] utilizationCountMissions 1
scalar OsgEarthNet.uav[31] utilizationCountManeuversMission 10
scalar OsgEarthNet.uav[31] utilizationCountManeuversMaintenance 2
scalar OsgEarthNet.uav[31] utilizationCountChargeState 1
scalar OsgEarthNet.uav[31] utilizationCountOverdrawnAfterMission 0
scalar OsgEarthNet.uav[31] utilizationCountIdleState 2
scalar OsgEarthNet.uav[31] utilizationFail 0
scalar OsgEarthNet.uav[31] simulationTime 259200
scalar OsgEarthNet.uav[32] utilizationSecMission 29742.295996281
scalar OsgEarthNet.uav[32] utilizationSecMaintenance 17069.665574412
scalar OsgEarthNet.uav[32] utilizationSecCharge 168656.58447059
scalar OsgEarthNet.uav[32] utilizationSecIdle 43731.452958717
scalar OsgEarthNet.uav[32] utilizationEnergyMission 138435.95478058
scalar OsgEarthNet.uav[32] utilizationEnergyMaintenance 78406.595306396
scalar OsgEarthNet.uav[32] utilizationEnergyCharge 212073.63531494
scalar OsgEarthNet.uav[32] utilizationEnergyOverdrawMission 0
scalar OsgEarthNet.uav[32] utilizationEnergyOverdrawMaintenance 0
scalar OsgEarthNet.uav[32] utilizationCountMissions 47
scalar OsgEarthNet.uav[32] utilizationCountManeuversMission 480
scalar OsgEarthNet.uav[32] utilizationCountManeuversMaintenance 94
scalar OsgEarthNet.uav[32] utilizationCountChargeState 47
scalar OsgEarthNet.uav[32] utilizationCountOverdrawnAfterMission 0
scalar OsgEarthNet.uav[32] utilizationCountIdleState 47
scalar OsgEarthNet.uav[32] utilizationFail 0
scalar OsgEarthNet.uav[32] simulationTime 259200
scalar OsgEarthNet.uav[33] utilizationSecMission 366.54558454727
scalar OsgEarthNet.uav[33] utilizationSecMaintenance 628.82077470535
scalar OsgEarthNet.uav[33] utilizationSecCharge 3480
scalar OsgEarthNet.uav[33] utilizationSecIdle 254724.63264075
scalar OsgEarthNet.uav[33] utilizationEnergyMission 1698.3595123291
scalar OsgEarthNet.uav[33] utilizationEnergyMaintenance 2623.5964584351
scalar OsgEarthNet.uav[33] utilizationEnergyCharge 4321.9536132812
scalar OsgEarthNet.uav[33] utilizationEnergyOverdrawMission 0
scalar OsgEarthNet.uav[33] utilizationEnergyOverdrawMaintenance 0
scalar OsgEarthNet.uav[33] utilizationCountMissions 1
scalar OsgEarthNet.uav[33] utilizationCountManeuversMission 6
scalar OsgEarthNet.uav[33] utilizationCountManeuversMaintenance 2
scalar OsgEarthNet.uav[33] utilizationCountChargeState 1
scalar OsgEarthNet.uav[33] utilizationCountOverdrawnAfterMission 0
scalar OsgEarthNet.uav[33] utilizationCountIdleState 2
scalar OsgEarthNet.uav[33] utilizationFail 0
scalar OsgEarthNet.uav[33] simulationTime 259200
scalar OsgEarthNet.uav[34] utilizationSecMission 30787.865189636
scalar OsgEarthNet.uav[34] utilizationSecMaintenance 14950.194111743
scalar OsgEarthNet.uav[34] utilizationSecCharge 165637.23599454
scalar OsgEarthNet.uav[34] utilizationSecIdle 47824.703704081
scalar OsgEarthNet.uav[34] utilizationEnergyMission 141310.26532745
scalar OsgEarthNet.uav[34] utilizationEnergyMaintenance 68997.12796402
scalar OsgEarthNet.uav[34] utilizationEnergyCharge 208532.9440918
scalar OsgEarthNet.uav[34] utilizationEnergyOverdrawMission 0
scalar OsgEarthNet.uav[34] utilizationEnergyOverdrawMaintenance 0
scalar OsgEarthNet.uav[34] utilizationCountMissions 46
scalar OsgEarthNet.uav[34] utilizationCountManeuversMission 497
scalar OsgEarthNet.uav[34] utilizationCountManeuversMaintenance 92
scalar OsgEarthNet.uav[34] utilizationCountChargeState 46
scalar OsgEarthNet.uav[34] utilizationCountOverdrawnAfterMission 0
scalar OsgEarthNet.uav[34] utilizationCountIdleState 46
scalar OsgEarthNet.uav[34] utilizationFail 0
scalar OsgEarthNet.uav[34] simulationTime 259200
scalar OsgEarthNet.uav[35] utilizationSecMission 694.00169469977
scalar OsgEarthNet.uav[35] utilizationSecMaintenance 338.49695459722
scalar OsgEarthNet.uav[35] utilizationSecCharge 3760
scalar OsgEarthNet.uav[35] utilizationSecIdle 254407.5003507
scalar OsgEarthNet.uav[35] utilizationEnergyMission 3076.4702987671
scalar OsgEarthNet.uav[35] utilizationEnergyMaintenance 1699.0723991394
scalar OsgEarthNet.uav[35] utilizationEnergyCharge 4775.5424804688
scalar OsgEarthNet.uav[35] utilizationEnergyOverdrawMission 0
scalar OsgEarthNet.uav[35] utilizationEnergyOverdrawMaintenance 0
scalar OsgEarthNet.uav[35] utilizationCountMissions 1
scalar OsgEarthNet.uav[35] utilizationCountManeuversMission 13
scalar OsgEarthNet.uav[35] utilizationCountManeuversMaintenance 2
scalar OsgEarthNet.uav[35] utilizationCountChargeState 1
scalar OsgEarthNet.uav[35] utilizationCountOverdrawnAfterMission 0
scalar OsgEarthNet.uav[35] utilizationCountIdleState 2
scalar OsgEarthNet.uav[35] utilizationFail 0
scalar OsgEarthNet.uav[35] simulationTime 259200
scalar OsgEarthNet.uav[36] utilizationSecMission 650.68693590098
scalar OsgEarthNet.uav[36] utilizationSecMaintenance 350.31285707965
scalar OsgEarthNet.uav[36] utilizationSecCharge 3670
scalar OsgEarthNet.uav[36] utilizationSecIdle 254528.99920702
scalar OsgEarthNet.uav[36] utilizationEnergyMission 2868.8691101074
scalar OsgEarthNet.uav[36] utilizationEnergyMaintenance 1663.0362167358
scalar OsgEarthNet.uav[36] utilizationEnergyCharge 4531.9096679688
scalar OsgEarthNet.uav[36] utilizationEnergyOverdrawMission 0
scalar OsgEarthNet.uav[36] utilizationEnergyOverdrawMaintenance 0
scalar OsgEarthNet.uav[36] utilizationCountMissions 1
scalar OsgEarthNet.uav[36] utilizationCountManeuversMission 9
scalar OsgEarthNet.uav[36] utilizationCountManeuversMaintenance 2
scalar OsgEarthNet.uav[36] utilizationCountChargeState 1
scalar OsgEarthNet.uav[36] utilizationCountOverdrawnAfterMission 0
scalar OsgEarthNet.uav[36] utilizationCountIdleState 2
scalar OsgEarthNet.uav[36] utilizationFail 0
scalar OsgEarthNet.uav[36] simulationTime 259200
scalar OsgEarthNet.uav[37] utilizationSecMission 29204.971552156
scalar OsgEarthNet.uav[37] utilizationSecMaintenance 17725.22594922
scalar OsgEarthNet.uav[37] utilizationSecCharge 171770
scalar OsgEarthNet.uav[37] utilizationSecIdle 40499.801498624
scalar OsgEarthNet.uav[37] utilizationEnergyMission 134004.23720932
scalar OsgEarthNet.uav[37] utilizationEnergyMaintenance 82231.378669739
scalar OsgEarthNet.uav[37] utilizationEnergyCharge 215669.52905273
scalar OsgEarthNet.uav[37] utilizationEnergyOverdrawMission 0
scalar OsgEarthNet.uav[37] utilizationEnergyOverdrawMaintenance 0
scalar OsgEarthNet.uav[37] utilizationCountMissions 47
scalar OsgEarthNet.uav[37] utilizationCountManeuversMission 479
scalar OsgEarthNet.uav[37] utilizationCountManeuversMaintenance 94
scalar OsgEarthNet.uav[37] utilizationCountChargeState 47
scalar OsgEarthNet.uav[37] utilizationCountOverdrawnAfterMission 0
scalar OsgEarthNet.uav[37] utilizationCountIdleState 48
scalar OsgEarthNet.uav[37] utilizationFail 0
scalar OsgEarthNet.uav[37] simulationTime 259200
scalar OsgEarthNet.uav[38] utilizationSecMission 750.20472747826
scalar OsgEarthNet.uav[38] utilizationSecMaintenance 255.5651663541
scalar OsgEarthNet.uav[38] utilizationSecCharge 3730
scalar OsgEarthNet.uav[38] utilizationSecIdle 254464.22910617
scalar OsgEarthNet.uav[38] utilizationEnergyMission 3526.7334136963
scalar OsgEarthNet.uav[38] utilizationEnergyMaintenance 1187.6142692566
scalar OsgEarthNet.uav[38] utilizationEnergyCharge 4714.3510742188
scalar OsgEarthNet.uav[38] utilizationEnergyOverdrawMission 0
scalar OsgEarthNet.uav[38] utilizationEnergyOverdrawMaintenance 0
scalar OsgEarthNet.uav[38] utilizationCountMissions 1
scalar OsgEarthNet.uav[38] utilizationCountManeuversMission 11
scalar OsgEarthNet.uav[38] utilizationCountManeuversMaintenance 2
scalar OsgEarthNet.uav[38] utilizationCountChargeState 1
scalar OsgEarthNet.uav[38] utilizationCountOverdrawnAfterMission 0
scalar OsgEarthNet.uav[38] utilizationCountIdleState 2
scalar OsgEarthNet.uav[38] utilizationFail 0
scalar OsgEarthNet.uav[38] simulationTime 259200
scalar OsgEarthNet.uav[39] utilizationSecMission 760.62515258028
scalar OsgEarthNet.uav[39] utilizationSecMaintenance 202.91610409653
scalar OsgEarthNet.uav[39] utilizationSecCharge 3460
scalar OsgEarthNet.uav[39] utilizationSecIdle 254776.45774332
scalar OsgEarthNet.uav[39] utilizationEnergyMission 3318.0733261108
scalar OsgEarthNet.uav[39] utilizationEnergyMaintenance 995.26567840576
scalar OsgEarthNet.uav[39] utilizationEnergyCharge 4251.5239257812
scalar OsgEarthNet.uav[39] utilizationEnergyOverdrawMission 0
scalar OsgEarthNet.uav[39] utilizationEnergyOverdrawMaintenance 0
scalar OsgEarthNet.uav[39] utilizationCountMissions 1
scalar OsgEarthNet.uav[39] utilizationCountManeuversMission 12
scalar OsgEarthNet.uav[39] utilizationCountManeuversMaintenance 2
scalar OsgEarthNet.uav[39] utilizationCountChargeState 1
scalar OsgEarthNet.uav[39] utilizationCountOverdrawnAfterMission 0
scalar OsgEarthNet.uav[39] utilizationCountIdleState 2
scalar OsgEarthNet.uav[39] utilizationFail 0
scalar OsgEarthNet.uav[39] simulationTime 259200
scalar OsgEarthNet.uav[40] utilizationSecMission 1410.99226641
scalar OsgEarthNet.uav[40] utilizationSecMaintenance 429.19431399076
scalar OsgEarthNet.uav[40] utilizationSecCharge 7020
scalar OsgEarthNet.uav[40] utilizationSecIdle 250339.8124196
scalar OsgEarthNet.uav[40] utilizationEnergyMission 6607.4570617676
scalar OsgEarthNet.uav[40] utilizationEnergyMaintenance 2077.8345680237
scalar OsgEarthNet.uav[40] utilizationEnergyCharge 8685.2885742188
scalar OsgEarthNet.uav[40] utilizationEnergyOverdrawMission 0
scalar OsgEarthNet.uav[40] utilizationEnergyOverdrawMaintenance 0
scalar OsgEarthNet.uav[40] utilizationCountMissions 2
scalar OsgEarthNet.uav[40] utilizationCountManeuversMission 23
scalar OsgEarthNet.uav[40] utilizationCountManeuversMaintenance 4
scalar OsgEarthNet.uav[40] utilizationCountChargeState 2
scalar OsgEarthNet.uav[40] utilizationCountOverdrawnAfterMission 0
scalar OsgEarthNet.uav[40] utilizationCountIdleState 3
scalar OsgEarthNet.uav[40] utilizationFail 0
scalar OsgEarthNet.uav[40] simulationTime 259200
scalar OsgEarthNet.uav[41] utilizationSecMission 26492.157600047
scalar OsgEarthNet.uav[41] utilizationSecMaintenance 17643.757798883
scalar OsgEarthNet.uav[41] utilizationSecCharge 161866.67667876
scalar OsgEarthNet.uav[41] utilizationSecIdle 53197.40692231
scalar OsgEarthNet.uav[41] utilizationEnergyMission 121508.80426788
scalar OsgEarthNet.uav[41] utilizationEnergyMaintenance 82566.287651062
scalar OsgEarthNet.uav[41] utilizationEnergyCharge 203343.83398438
scalar OsgEarthNet.uav[41] utilizationEnergyOverdrawMission 0
scalar OsgEarthNet.uav[41] utilizationEnergyOverdrawMaintenance 0
scalar OsgEarthNet.uav[41] utilizationCountMissions 45
scalar OsgEarthNet.uav[41] utilizationCountManeuversMission 433
scalar OsgEarthNet.uav[41] utilizationCountManeuversMaintenance 90
scalar OsgEarthNet.uav[41] utilizationCountChargeState 45
scalar OsgEarthNet.uav[41] utilizationCountOverdrawnAfterMission 0
scalar OsgEarthNet.uav[41] utilizationCountIdleState 45
scalar OsgEarthNet.uav[41] utilizationFail 0
scalar OsgEarthNet.uav[41] simulationTime 259200
scalar OsgEarthNet.uav[42] utilizationSecMission 694.00169469977
scalar OsgEarthNet.uav[42] utilizationSecMaintenance 338.49695459722
scalar OsgEarthNet.uav[42] utilizationSecCharge 3930
scalar OsgEarthNet.uav[42] utilizationSecIdle 254237.5003507
scalar OsgEarthNet.uav[42] utilizationEnergyMission 3327.690612793
scalar OsgEarthNet.uav[42] utilizationEnergyMaintenance 1695.7293815613
scalar OsgEarthNet.uav[42] utilizationEnergyCharge 5023.4233398438
scalar OsgEarthNet.uav[42] utilizationEnergyOverdrawMission 0
scalar OsgEarthNet.uav[42] utilizationEnergyOverdrawMaintenance 0
scalar OsgEarthNet.uav[42] utilizationCountMissions 1
scalar OsgEarthNet.uav[42] utilizationCountManeuversMission 13
scalar OsgEarthNet.uav[42] utilizationCountManeuversMaintenance 2
scalar OsgEarthNet.uav[42] utilizationCountChargeState 1
scalar OsgEarthNet.uav[42] utilizationCountOverdrawnAfterMission 0
scalar OsgEarthNet.uav[42] utilizationCountIdleState 2
scalar OsgEarthNet.uav[42] utilizationFail 0
scalar OsgEarthNet.uav[42] simulationTime 259200
scalar OsgEarthNet.uav[43] utilizationSecMission 313.66140879233
scalar OsgEarthNet.uav[43] utilizationSecMaintenance 473.03391658586
scalar OsgEarthNet.uav[43] utilizationSecCharge 3120
scalar OsgEarthNet.uav[43] utilizationSecIdle 255293.30367462
scalar OsgEarthNet.uav[43] utilizationEnergyMission 1562.7166442871
scalar OsgEarthNet.uav[43] utilizationEnergyMaintenance 2025.7166976929
scalar OsgEarthNet.uav[43] utilizationEnergyCharge 3588.4272460938
scalar OsgEarthNet.uav[43] utilizationEnergyOverdrawMission 0
scalar OsgEarthNet.uav[43] utilizationEnergyOverdrawMaintenance 0
scalar OsgEarthNet.uav[43] utilizationCountMissions 1
scalar OsgEarthNet.uav[43] utilizationCountManeuversMission 5
scalar OsgEarthNet.uav[43] utilizationCountManeuversMaintenance 2
scalar OsgEarthNet.uav[43] utilizationCountChargeState 1
scalar OsgEarthNet.uav[43] utilizationCountOverdrawnAfterMission 0
scalar OsgEarthNet.uav[43] utilizationCountIdleState 2
scalar OsgEarthNet.uav[43] utilizationFail 0
scalar OsgEarthNet.uav[43] simulationTime 259200
scalar OsgEarthNet.uav[44] utilizationSecMission 13445.233541512
scalar OsgEarthNet.uav[44] utilizationSecMaintenance 12483.269687041
scalar OsgEarthNet.uav[44] utilizationSecCharge 92337.829588415
scalar OsgEarthNet.uav[44] utilizationSecIdle 140933.66618303
scalar OsgEarthNet.uav[44] utilizationEnergyMission 61603.156478882
scalar OsgEarthNet.uav[44] utilizationEnergyMaintenance 57771.144966126
scalar OsgEarthNet.uav[44] utilizationEnergyCharge 116173.90490723
scalar OsgEarthNet.uav[44] utilizationEnergyOverdrawMission 0
scalar OsgEarthNet.uav[44] utilizationEnergyOverdrawMaintenance 0
scalar OsgEarthNet.uav[44] utilizationCountMissions 26
scalar OsgEarthNet.uav[44] utilizationCountManeuversMission 220
scalar OsgEarthNet.uav[44] utilizationCountManeuversMaintenance 52
scalar OsgEarthNet.uav[44] utilizationCountChargeState 26
scalar OsgEarthNet.uav[44] utilizationCountOverdrawnAfterMission 0
scalar OsgEarthNet.uav[44] utilizationCountIdleState 26
scalar OsgEarthNet.uav[44] utilizationFail 0
scalar OsgEarthNet.uav[44] simulationTime 259200
scalar OsgEarthNet.uav[45] utilizationSecMission 7864.9279230322
scalar OsgEarthNet.uav[45] utilizationSecMaintenance 6640.3603251917
scalar OsgEarthNet.uav[45] utilizationSecCharge 50410
scalar OsgEarthNet.uav[45] utilizationSecIdle 194284.71075178
scalar OsgEarthNet.uav[45] utilizationEnergyMission 35801.903406951
scalar OsgEarthNet.uav[45] utilizationEnergyMaintenance 30333.137519836
scalar OsgEarthNet.uav[45] utilizationEnergyCharge 62999.237792969
scalar OsgEarthNet.uav[45] utilizationEnergyOverdrawMission 0
scalar OsgEarthNet.uav[45] utilizationEnergyOverdrawMaintenance 0
scalar OsgEarthNet.uav[45] utilizationCountMissions 14
scalar OsgEarthNet.uav[45] utilizationCountManeuversMission 130
scalar OsgEarthNet.uav[45] utilizationCountManeuversMaintenance 29
scalar OsgEarthNet.uav[45] utilizationCountChargeState 14
scalar OsgEarthNet.uav[45] utilizationCountOverdrawnAfterMission 0
scalar OsgEarthNet.uav[45] utilizationCountIdleState 15
scalar OsgEarthNet.uav[45] utilizationFail 0
scalar OsgEarthNet.uav[45] simulationTime 259200
scalar OsgEarthNet.uav[46] utilizationSecMission 21683.475509737
scalar OsgEarthNet.uav[46] utilizationSecMaintenance 14793.625974039
scalar OsgEarthNet.uav[46] utilizationSecCharge 131976.89330417
scalar OsgEarthNet.uav[46] utilizationSecIdle 90746.00421205
scalar OsgEarthNet.uav[46] utilizationEnergyMission 100867.66844177
scalar OsgEarthNet.uav[46] utilizationEnergyMaintenance 68288.533073425
scalar OsgEarthNet.uav[46] utilizationEnergyCharge 165849.67211914
scalar OsgEarthNet.uav[46] utilizationEnergyOverdrawMission 0
scalar OsgEarthNet.uav[46] utilizationEnergyOverdrawMaintenance 0
scalar OsgEarthNet.uav[46] utilizationCountMissions 37
scalar OsgEarthNet.uav[46] utilizationCountManeuversMission 347
scalar OsgEarthNet.uav[46] utilizationCountManeuversMaintenance 74
scalar OsgEarthNet.uav[46] utilizationCountChargeState 37
scalar OsgEarthNet.uav[46] utilizationCountOverdrawnAfterMission 0
scalar OsgEarthNet.uav[46] utilizationCountIdleState 37
scalar OsgEarthNet.uav[46] utilizationFail 0
scalar OsgEarthNet.uav[46] simulationTime 259200
scalar OsgEarthNet.uav[47] utilizationSecMission 694.00169469977
scalar OsgEarthNet.uav[47] utilizationSecMaintenance 349.76607937241
scalar OsgEarthNet.uav[47] utilizationSecCharge 3870
scalar OsgEarthNet.uav[47] utilizationSecIdle 254286.23122593
scalar OsgEarthNet.uav[47] utilizationEnergyMission 3330.465675354
scalar OsgEarthNet.uav[47] utilizationEnergyMaintenance 1585.100353241
scalar OsgEarthNet.uav[47] utilizationEnergyCharge 4915.5654296875
scalar OsgEarthNet.uav[47] utilizationEnergyOverdrawMission 0
scalar OsgEarthNet.uav[47] utilizationEnergyOverdrawMaintenance 0
scalar OsgEarthNet.uav[47] utilizationCountMissions 1
scalar OsgEarthNet.uav[47] utilizationCountManeuversMission 13
scalar OsgEarthNet.uav[47] utilizationCountManeuversMaintenance 2
scalar OsgEarthNet.uav[47] utilizationCountChargeState 1
scalar OsgEarthNet.uav[47] utilizationCountOverdrawnAfterMission 0
scalar OsgEarthNet.uav[47] utilizationCountIdleState 2
scalar OsgEarthNet.uav[47] utilizationFail 0
scalar OsgEarthNet.uav[47] simulationTime 259200
scalar OsgEarthNet.uav[48] utilizationSecMission 694.00169469977
scalar OsgEarthNet.uav[48] utilizationSecMaintenance 338.49695459722
scalar OsgEarthNet.uav[48] utilizationSecCharge 3680
scalar OsgEarthNet.uav[48] utilizationSecIdle 254487.5003507
scalar OsgEarthNet.uav[48] utilizationEnergyMission 3215.0203399658
scalar OsgEarthNet.uav[48] utilizationEnergyMaintenance 1415.4970817566
scalar OsgEarthNet.uav[48] utilizationEnergyCharge 4630.515625
scalar OsgEarthNet.uav[48] utilizationEnergyOverdrawMission 0
scalar OsgEarthNet.uav[48] utilizationEnergyOverdrawMaintenance 0
scalar OsgEarthNet.uav[48] utilizationCountMissions 1
scalar OsgEarthNet.uav[48] utilizationCountManeuversMission 13
scalar OsgEarthNet.uav[48] utilizationCountManeuversMaintenance 2
scalar OsgEarthNet.uav[48] utilizationCountChargeState 1
scalar OsgEarthNet.uav[48] utilizationCountOverdrawnAfterMission 0
scalar OsgEarthNet.uav[48] utilizationCountIdleState 2
scalar OsgEarthNet.uav[48] utilizationFail 0
scalar OsgEarthNet.uav[48] simulationTime 259200
scalar OsgEarthNet.uav[49] utilizationSecMission 650.68693590098
scalar OsgEarthNet.uav[49] utilizationSecMaintenance 350.31285707965
scalar OsgEarthNet.uav[49] utilizationSecCharge 3750
scalar OsgEarthNet.uav[49] utilizationSecIdle 254448.99920702
scalar OsgEarthNet.uav[49] utilizationEnergyMission 3147.5207366943
scalar OsgEarthNet.uav[49] utilizationEnergyMaintenance 1565.9473495483
scalar OsgEarthNet.uav[49] utilizationEnergyCharge 4713.4750976562
scalar OsgEarthNet.uav[49] utilizationEnergyOverdrawMission 0
scalar OsgEarthNet.uav[49] utilizationEnergyOverdrawMaintenance 0
scalar OsgEarthNet.uav[49] utilizationCountMissions 1
scalar OsgEarthNet.uav[49] utilizationCountManeuversMission 9
scalar OsgEarthNet.uav[49] utilizationCountManeuversMaintenance 2
scalar OsgEarthNet.uav[49] utilizationCountChargeState 1
scalar OsgEarthNet.uav[49] utilizationCountOverdrawnAfterMission 0
scalar OsgEarthNet.uav[49] utilizationCountIdleState 2
scalar OsgEarthNet.uav[49] utilizationFail 0
scalar OsgEarthNet.uav[49] simulationTime 259200
scalar OsgEarthNet.uav[50] utilizationSecMission 27469.132398103
scalar OsgEarthNet.uav[50] utilizationSecMaintenance 17862.342120992
scalar OsgEarthNet.uav[50] utilizationSecCharge 167410
scalar OsgEarthNet.uav[50] utilizationSecIdle 46458.524480905
scalar OsgEarthNet.uav[50] utilizationEnergyMission 127653.72392273
scalar OsgEarthNet.uav[50] utilizationEnergyMaintenance 82175.796134949
scalar OsgEarthNet.uav[50] utilizationEnergyCharge 209747.19628906
scalar OsgEarthNet.uav[50] utilizationEnergyOverdrawMission 0
scalar OsgEarthNet.uav[50] utilizationEnergyOverdrawMaintenance 0
scalar OsgEarthNet.uav[50] utilizationCountMissions 46
scalar OsgEarthNet.uav[50] utilizationCountManeuversMission 453
scalar OsgEarthNet.uav[50] utilizationCountManeuversMaintenance 92
scalar OsgEarthNet.uav[50] utilizationCountChargeState 46
scalar OsgEarthNet.uav[50] utilizationCountOverdrawnAfterMission 0
scalar OsgEarthNet.uav[50] utilizationCountIdleState 47
scalar OsgEarthNet.uav[50] utilizationFail 0
scalar OsgEarthNet.uav[50] simulationTime 259200
scalar OsgEarthNet.uav[51] utilizationSecMission 22069.320383086
scalar OsgEarthNet.uav[51] utilizationSecMaintenance 14029.11336226
scalar OsgEarthNet.uav[51] utilizationSecCharge 133692.49265669
scalar OsgEarthNet.uav[51] utilizationSecIdle 89409.07259796
scalar OsgEarthNet.uav[51] utilizationEnergyMission 102867.1499176
scalar OsgEarthNet.uav[51] utilizationEnergyMaintenance 66432.183849335
scalar OsgEarthNet.uav[51] utilizationEnergyCharge 168063.23828125
scalar OsgEarthNet.uav[51] utilizationEnergyOverdrawMission 0
scalar OsgEarthNet.uav[51] utilizationEnergyOverdrawMaintenance 0
scalar OsgEarthNet.uav[51] utilizationCountMissions 37
scalar OsgEarthNet.uav[51] utilizationCountManeuversMission 363
scalar OsgEarthNet.uav[51] utilizationCountManeuversMaintenance 74
scalar OsgEarthNet.uav[51] utilizationCountChargeState 37
scalar OsgEarthNet.uav[51] utilizationCountOverdrawnAfterMission 0
scalar OsgEarthNet.uav[51] utilizationCountIdleState 37
scalar OsgEarthNet.uav[51] utilizationFail 0
scalar OsgEarthNet.uav[51] simulationTime 259200
scalar OsgEarthNet.uav[52] utilizationSecMission 13828.010932685
scalar OsgEarthNet.uav[52] utilizationSecMaintenance 7197.3210774393
scalar OsgEarthNet.uav[52] utilizationSecCharge 73824.830175835
scalar OsgEarthNet.uav[52] utilizationSecIdle 164349.83681404
scalar OsgEarthNet.uav[52] utilizationEnergyMission 65476.392051697
scalar OsgEarthNet.uav[52] utilizationEnergyMaintenance 32575.486141205
scalar OsgEarthNet.uav[52] utilizationEnergyCharge 93189.272003174
scalar OsgEarthNet.uav[52] utilizationEnergyOverdrawMission 0
scalar OsgEarthNet.uav[52] utilizationEnergyOverdrawMaintenance 0
scalar OsgEarthNet.uav[52] utilizationCountMissions 21
scalar OsgEarthNet.uav[52] utilizationCountManeuversMission 224
scalar OsgEarthNet.uav[52] utilizationCountManeuversMaintenance 42
scalar OsgEarthNet.uav[52] utilizationCountChargeState 21
scalar OsgEarthNet.uav[52] utilizationCountOverdrawnAfterMission 0
scalar OsgEarthNet.uav[52] utilizationCountIdleState 21
scalar OsgEarthNet.uav[52] utilizationFail 0
scalar OsgEarthNet.uav[52] simulationTime 259200
scalar OsgEarthNet.uav[53] utilizationSecMission 442.1510352141
scalar OsgEarthNet.uav[53] utilizationSecMaintenance 540.96265869628
scalar OsgEarthNet.uav[53] utilizationSecCharge 3410
scalar OsgEarthNet.uav[53] utilizationSecIdle 254806.88530609
scalar OsgEarthNet.uav[53] utilizationEnergyMission 1829.7499542236
scalar OsgEarthNet.uav[53] utilizationEnergyMaintenance 2369.6316757202
scalar OsgEarthNet.uav[53] utilizationEnergyCharge 4199.3862304688
scalar OsgEarthNet.uav[53] utilizationEnergyOverdrawMission 0
scalar OsgEarthNet.uav[53] utilizationEnergyOverdrawMaintenance 0
scalar OsgEarthNet.uav[53] utilizationCountMissions 1
scalar OsgEarthNet.uav[53] utilizationCountManeuversMission 7
scalar OsgEarthNet.uav[53] utilizationCountManeuversMaintenance 2
scalar OsgEarthNet.uav[53] utilizationCountChargeState 1
scalar OsgEarthNet.uav[53] utilizationCountOverdrawnAfterMission 0
scalar OsgEarthNet.uav[53] utilizationCountIdleState 2
scalar OsgEarthNet.uav[53] utilizationFail 0
scalar OsgEarthNet.uav[53] simulationTime 259200
scalar OsgEarthNet.uav[54] utilizationSecMission 528.55000878666
scalar OsgEarthNet.uav[54] utilizationSecMaintenance 413.64453676047
scalar OsgEarthNet.uav[54] utilizationSecCharge 3500
scalar OsgEarthNet.uav[54] utilizationSecIdle 254757.80445445
scalar OsgEarthNet.uav[54] utilizationEnergyMission 2442.7221298218
scalar OsgEarthNet.uav[54] utilizationEnergyMaintenance 1813.3342514038
scalar OsgEarthNet.uav[54] utilizationEnergyCharge 4256.0581054688
scalar OsgEarthNet.uav[54] utilizationEnergyOverdrawMission 0
scalar OsgEarthNet.uav[54] utilizationEnergyOverdrawMaintenance 0
scalar OsgEarthNet.uav[54] utilizationCountMissions 1
scalar OsgEarthNet.uav[54] utilizationCountManeuversMission 10
scalar OsgEarthNet.uav[54] utilizationCountManeuversMaintenance 2
scalar OsgEarthNet.uav[54] utilizationCountChargeState 1
scalar OsgEarthNet.uav[54] utilizationCountOverdrawnAfterMission 0
scalar OsgEarthNet.uav[54] utilizationCountIdleState 2
scalar OsgEarthNet.uav[54] utilizationFail 0
scalar OsgEarthNet.uav[54] simulationTime 259200
scalar OsgEarthNet.uav[55] utilizationSecMission 694.00169469977
scalar OsgEarthNet.uav[55] utilizationSecMaintenance 338.49695459722
scalar OsgEarthNet.uav[55] utilizationSecCharge 3810
scalar OsgEarthNet.uav[55] utilizationSecIdle 254357.5003507
scalar OsgEarthNet.uav[55] utilizationEnergyMission 3179.7007141113
scalar OsgEarthNet.uav[55] utilizationEnergyMaintenance 1648.3814201355
scalar OsgEarthNet.uav[55] utilizationEnergyCharge 4828.0849609375
scalar OsgEarthNet.uav[55] utilizationEnergyOverdrawMission 0
scalar OsgEarthNet.uav[55] utilizationEnergyOverdrawMaintenance 0
scalar OsgEarthNet.uav[55] utilizationCountMissions 1
scalar OsgEarthNet.uav[55] utilizationCountManeuversMission 13
scalar OsgEarthNet.uav[55] utilizationCountManeuversMaintenance 2
scalar OsgEarthNet.uav[55] utilizationCountChargeState 1
scalar OsgEarthNet.uav[55] utilizationCountOverdrawnAfterMission 0
scalar OsgEarthNet.uav[55] utilizationCountIdleState 2
scalar OsgEarthNet.uav[55] utilizationFail 0
scalar OsgEarthNet.uav[55] simulationTime 259200
scalar OsgEarthNet.uav[56] utilizationSecMission 28860.531162656
scalar OsgEarthNet.uav[56] utilizationSecMaintenance 20130.959868951
scalar OsgEarthNet.uav[56] utilizationSecCharge 179836.50796839
scalar OsgEarthNet.uav[56] utilizationSecIdle 30372
scalar OsgEarthNet.uav[56] utilizationEnergyMission 133984.76456451
scalar OsgEarthNet.uav[56] utilizationEnergyMaintenance 93594.708358765
scalar OsgEarthNet.uav[56] utilizationEnergyCharge 225863.62597656
scalar OsgEarthNet.uav[56] utilizationEnergyOverdrawMission 0
scalar OsgEarthNet.uav[56] utilizationEnergyOverdrawMaintenance 0
scalar OsgEarthNet.uav[56] utilizationCountMissions 50
scalar OsgEarthNet.uav[56] utilizationCountManeuversMission 473
scalar OsgEarthNet.uav[56] utilizationCountManeuversMaintenance 99
scalar OsgEarthNet.uav[56] utilizationCountChargeState 50
scalar OsgEarthNet.uav[56] utilizationCountOverdrawnAfterMission 0
scalar OsgEarthNet.uav[56] utilizationCountIdleState 50
scalar OsgEarthNet.uav[56] utilizationFail 0
scalar OsgEarthNet.uav[56] simulationTime 259200
scalar OsgEarthNet.uav[57] utilizationSecMission 707.07252763446
scalar OsgEarthNet.uav[57] utilizationSecMaintenance 413.33403095235
scalar OsgEarthNet.uav[57] utilizationSecCharge 3930
scalar OsgEarthNet.uav[57] utilizationSecIdle 254149.59244141
scalar OsgEarthNet.uav[57] utilizationEnergyMission 3121.6026077271
scalar OsgEarthNet.uav[57] utilizationEnergyMaintenance 1907.4584770203
scalar OsgEarthNet.uav[57] utilizationEnergyCharge 4978.7651367188
scalar OsgEarthNet.uav[57] utilizationEnergyOverdrawMission 0
scalar OsgEarthNet.uav[57] utilizationEnergyOverdrawMaintenance 0
scalar OsgEarthNet.uav[57] utilizationCountMissions 1
scalar OsgEarthNet.uav[57] utilizationCountManeuversMission 11
scalar OsgEarthNet.uav[57] utilizationCountManeuversMaintenance 2
scalar OsgEarthNet.uav[57] utilizationCountChargeState 1
scalar OsgEarthNet.uav[57] utilizationCountOverdrawnAfterMission 0
scalar OsgEarthNet.uav[57] utilizationCountIdleState 2
scalar OsgEarthNet.uav[57] utilizationFail 0
scalar OsgEarthNet.uav[57] simulationTime 259200
scalar OsgEarthNet.uav[58] utilizationSecMission 28396.368778169
scalar OsgEarthNet.uav[58] utilizationSecMaintenance 18268.583585799
scalar OsgEarthNet.uav[58] utilizationSecCharge 170450.54869486
scalar OsgEarthNet.uav[58] utilizationSecIdle 42084.497941176
scalar OsgEarthNet.uav[58] utilizationEnergyMission 131673.99327087
scalar OsgEarthNet.uav[58] utilizationEnergyMaintenance 85320.856456757
scalar OsgEarthNet.uav[58] utilizationEnergyCharge 214719.40893555
scalar OsgEarthNet.uav[58] utilizationEnergyOverdrawMission 0
scalar OsgEarthNet.uav[58] utilizationEnergyOverdrawMaintenance 0
scalar OsgEarthNet.uav[58] utilizationCountMissions 47
scalar OsgEarthNet.uav[58] utilizationCountManeuversMission 459
scalar OsgEarthNet.uav[58] utilizationCountManeuversMaintenance 94
scalar OsgEarthNet.uav[58] utilizationCountChargeState 47
scalar OsgEarthNet.uav[58] utilizationCountOverdrawnAfterMission 0
scalar OsgEarthNet.uav[58] utilizationCountIdleState 47
scalar OsgEarthNet.uav[58] utilizationFail 0
scalar OsgEarthNet.uav[58] simulationTime 259200
scalar OsgEarthNet.uav[59] utilizationSecMission 13203.918413185
scalar OsgEarthNet.uav[59] utilizationSecMaintenance 8874.1988557995
scalar OsgEarthNet.uav[59] utilizationSecCharge 80123.999062381
scalar OsgEarthNet.uav[59] utilizationSecIdle 156997.88266863
scalar OsgEarthNet.uav[59] utilizationEnergyMission 61597.558517456
scalar OsgEarthNet.uav[59] utilizationEnergyMaintenance 40618.646438599
scalar OsgEarthNet.uav[59] utilizationEnergyCharge 100536.32873535
scalar OsgEarthNet.uav[59] utilizationEnergyOverdrawMission 0
scalar OsgEarthNet.uav[59] utilizationEnergyOverdrawMaintenance 0
scalar OsgEarthNet.uav[59] utilizationCountMissions 23
scalar OsgEarthNet.uav[59] utilizationCountManeuversMission 217
scalar OsgEarthNet.uav[59] utilizationCountManeuversMaintenance 46
scalar OsgEarthNet.uav[59] utilizationCountChargeState 23
scalar OsgEarthNet.uav[59] utilizationCountOverdrawnAfterMission 0
scalar OsgEarthNet.uav[59] utilizationCountIdleState 23
scalar OsgEarthNet.uav[59] utilizationFail 0
scalar OsgEarthNet.uav[59] simulationTime 259200
scalar OsgEarthNet.uav[60] utilizationSecMission 28106.772485549
scalar OsgEarthNet.uav[60] utilizationSecMaintenance 17979.231589703
scalar OsgEarthNet.uav[60] utilizationSecCharge 170720
scalar OsgEarthNet.uav[60] utilizationSecIdle 42393.994924748
scalar OsgEarthNet.uav[60] utilizationEnergyMission 130050.27300262
scalar OsgEarthNet.uav[60] utilizationEnergyMaintenance 83930.600767935
scalar OsgEarthNet.uav[60] utilizationEnergyCharge 213767.96606445
scalar OsgEarthNet.uav[60] utilizationEnergyOverdrawMission 0
scalar OsgEarthNet.uav[60] utilizationEnergyOverdrawMaintenance 0
scalar OsgEarthNet.uav[60] utilizationCountMissions 47
scalar OsgEarthNet.uav[60] utilizationCountManeuversMission 472
scalar OsgEarthNet.uav[60] utilizationCountManeuversMaintenance 95
scalar OsgEarthNet.uav[60] utilizationCountChargeState 47
scalar OsgEarthNet.uav[60] utilizationCountOverdrawnAfterMission 0
scalar OsgEarthNet.uav[60] utilizationCountIdleState 48
scalar OsgEarthNet.uav[60] utilizationFail 0
scalar OsgEarthNet.uav[60] simulationTime 259200
scalar OsgEarthNet.uav[61] utilizationSecMission 682.94783150361
scalar OsgEarthNet.uav[61] utilizationSecMaintenance 298.15269315943
scalar OsgEarthNet.uav[61] utilizationSecCharge 3600
scalar OsgEarthNet.uav[61] utilizationSecIdle 254618.89847534
scalar OsgEarthNet.uav[61] utilizationEnergyMission 3113.214515686
scalar OsgEarthNet.uav[61] utilizationEnergyMaintenance 1369.145866394
scalar OsgEarthNet.uav[61] utilizationEnergyCharge 4482.361328125
scalar OsgEarthNet.uav[61] utilizationEnergyOverdrawMission 0
scalar OsgEarthNet.uav[61] utilizationEnergyOverdrawMaintenance 0
scalar OsgEarthNet.uav[61] utilizationCountMissions 1
scalar OsgEarthNet.uav[61] utilizationCountManeuversMission 12
scalar OsgEarthNet.uav[61] utilizationCountManeuversMaintenance 2
scalar OsgEarthNet.uav[61] utilizationCountChargeState 1
scalar OsgEarthNet.uav[61] utilizationCountOverdrawnAfterMission 0
scalar OsgEarthNet.uav[61] utilizationCountIdleState 2
scalar OsgEarthNet.uav[61] utilizationFail 0
scalar OsgEarthNet.uav[61] simulationTime 259200
scalar OsgEarthNet.uav[62] utilizationSecMission 20338.349224026
scalar OsgEarthNet.uav[62] utilizationSecMaintenance 13576.602330835
scalar OsgEarthNet.uav[62] utilizationSecCharge 123235.58909705
scalar OsgEarthNet.uav[62] utilizationSecIdle 102049.45834809
scalar OsgEarthNet.uav[62] utilizationEnergyMission 93916.521274567
scalar OsgEarthNet.uav[62] utilizationEnergyMaintenance 62469.50586319
scalar OsgEarthNet.uav[62] utilizationEnergyCharge 155653.87988281
scalar OsgEarthNet.uav[62] utilizationEnergyOverdrawMission 0
scalar OsgEarthNet.uav[62] utilizationEnergyOverdrawMaintenance 0
scalar OsgEarthNet.uav[62] utilizationCountMissions 34
scalar OsgEarthNet.uav[62] utilizationCountManeuversMission 339
scalar OsgEarthNet.uav[62] utilizationCountManeuversMaintenance 68
scalar OsgEarthNet.uav[62] utilizationCountChargeState 34
scalar OsgEarthNet.uav[62] utilizationCountOverdrawnAfterMission 0
scalar OsgEarthNet.uav[62] utilizationCountIdleState 34
scalar OsgEarthNet.uav[62] utilizationFail 0
scalar OsgEarthNet.uav[62] simulationTime 259200
scalar OsgEarthNet.uav[63] utilizationSecMission 698.84532193436
scalar OsgEarthNet.uav[63] utilizationSecMaintenance 323.03163670533
scalar OsgEarthNet.uav[63] utilizationSecCharge 3690
scalar OsgEarthNet.uav[63] utilizationSecIdle 254488.12204136
scalar OsgEarthNet.uav[63] utilizationEnergyMission 3135.7905273438
scalar OsgEarthNet.uav[63] utilizationEnergyMaintenance 1499.4228439331
scalar OsgEarthNet.uav[63] utilizationEnergyCharge 4635.2094726562
scalar OsgEarthNet.uav[63] utilizationEnergyOverdrawMission 0
scalar OsgEarthNet.uav[63] utilizationEnergyOverdrawMaintenance 0
scalar OsgEarthNet.uav[63] utilizationCountMissions 1
scalar OsgEarthNet.uav[63] utilizationCountManeuversMission 10
scalar OsgEarthNet.uav[63] utilizationCountManeuversMaintenance 2
scalar OsgEarthNet.uav[63] utilizationCountChargeState 1
scalar OsgEarthNet.uav[63] utilizationCountOverdrawnAfterMission 0
scalar OsgEarthNet.uav[63] utilizationCountIdleState 2
scalar OsgEarthNet.uav[63] utilizationFail 0
scalar OsgEarthNet.uav[63] simulationTime 259200
scalar OsgEarthNet.uav[64] utilizationSecMission 29130.573573587
scalar OsgEarthNet.uav[64] utilizationSecMaintenance 18408.061757497
scalar OsgEarthNet.uav[64] utilizationSecCharge 171509.36316153
scalar OsgEarthNet.uav[64] utilizationSecIdle 40152.000507383
scalar OsgEarthNet.uav[64] utilizationEnergyMission 134371.55474472
scalar OsgEarthNet.uav[64] utilizationEnergyMaintenance 85048.037685394
scalar OsgEarthNet.uav[64] utilizationEnergyCharge 215324.83978271
scalar OsgEarthNet.uav[64] utilizationEnergyOverdrawMission 0
scalar OsgEarthNet.uav[64] utilizationEnergyOverdrawMaintenance 0
scalar OsgEarthNet.uav[64] utilizationCountMissions 48
scalar OsgEarthNet.uav[64] utilizationCountManeuversMission 478
scalar OsgEarthNet.uav[64] utilizationCountManeuversMaintenance 96
scalar OsgEarthNet.uav[64] utilizationCountChargeState 48
scalar OsgEarthNet.uav[64] utilizationCountOverdrawnAfterMission 0
scalar OsgEarthNet.uav[64] utilizationCountIdleState 48
scalar OsgEarthNet.uav[64] utilizationFail 0
scalar OsgEarthNet.uav[64] simulationTime 259200
scalar OsgEarthNet.uav[65] utilizationSecMission 27184.371607433
scalar OsgEarthNet.uav[65] utilizationSecMaintenance 15310.132853967
scalar OsgEarthNet.uav[65] utilizationSecCharge 157470
scalar OsgEarthNet.uav[65] utilizationSecIdle 59235.494538601
scalar OsgEarthNet.uav[65] utilizationEnergyMission 125592.79749298
[...]
scalar OsgEarthNet.uav[81] utilizationCountMissions 7
scalar OsgEarthNet.uav[81] utilizationCountManeuversMission 55
scalar OsgEarthNet.uav[81] utilizationCountManeuversMaintenance 14
scalar OsgEarthNet.uav[81] utilizationCountChargeState 7
scalar OsgEarthNet.uav[81] utilizationCountOverdrawnAfterMission 0
scalar OsgEarthNet.uav[81] utilizationCountIdleState 8
scalar OsgEarthNet.uav[81] utilizationFail 0
scalar OsgEarthNet.uav[81] simulationTime 259200
scalar OsgEarthNet.uav[82] utilizationSecMission 8683.6513547197
scalar OsgEarthNet.uav[82] utilizationSecMaintenance 6313.803237888
scalar OsgEarthNet.uav[82] utilizationSecCharge 55480
scalar OsgEarthNet.uav[82] utilizationSecIdle 188722.54440739
scalar OsgEarthNet.uav[82] utilizationEnergyMission 39836.96862793
scalar OsgEarthNet.uav[82] utilizationEnergyMaintenance 29780.369232178
scalar OsgEarthNet.uav[82] utilizationEnergyCharge 69889.767578125
scalar OsgEarthNet.uav[82] utilizationEnergyOverdrawMission 0
scalar OsgEarthNet.uav[82] utilizationEnergyOverdrawMaintenance 0
scalar OsgEarthNet.uav[82] utilizationCountMissions 15
scalar OsgEarthNet.uav[82] utilizationCountManeuversMission 141
scalar OsgEarthNet.uav[82] utilizationCountManeuversMaintenance 30
scalar OsgEarthNet.uav[82] utilizationCountChargeState 15
scalar OsgEarthNet.uav[82] utilizationCountOverdrawnAfterMission 0
scalar OsgEarthNet.uav[82] utilizationCountIdleState 16
scalar OsgEarthNet.uav[82] utilizationFail 0
scalar OsgEarthNet.uav[82] simulationTime 259200
scalar OsgEarthNet.uav[83] utilizationSecMission 11043.199208351
scalar OsgEarthNet.uav[83] utilizationSecMaintenance 7432.6049279205
scalar OsgEarthNet.uav[83] utilizationSecCharge 66890.762994013
scalar OsgEarthNet.uav[83] utilizationSecIdle 173833.43186972
scalar OsgEarthNet.uav[83] utilizationEnergyMission 50679.336135864
scalar OsgEarthNet.uav[83] utilizationEnergyMaintenance 34198.704013824
scalar OsgEarthNet.uav[83] utilizationEnergyCharge 84163.253417969
scalar OsgEarthNet.uav[83] utilizationEnergyOverdrawMission 0
scalar OsgEarthNet.uav[83] utilizationEnergyOverdrawMaintenance 0
scalar OsgEarthNet.uav[83] utilizationCountMissions 19
scalar OsgEarthNet.uav[83] utilizationCountManeuversMission 181
scalar OsgEarthNet.uav[83] utilizationCountManeuversMaintenance 38
scalar OsgEarthNet.uav[83] utilizationCountChargeState 19
scalar OsgEarthNet.uav[83] utilizationCountOverdrawnAfterMission 0
scalar OsgEarthNet.uav[83] utilizationCountIdleState 19
scalar OsgEarthNet.uav[83] utilizationFail 0
scalar OsgEarthNet.uav[83] simulationTime 259200
scalar OsgEarthNet.uav[84] utilizationSecMission 26312.546353883
scalar OsgEarthNet.uav[84] utilizationSecMaintenance 18382.342536692
scalar OsgEarthNet.uav[84] utilizationSecCharge 160166.67178979
scalar OsgEarthNet.uav[84] utilizationSecIdle 54338.438319633
scalar OsgEarthNet.uav[84] utilizationEnergyMission 120115.33448029
scalar OsgEarthNet.uav[84] utilizationEnergyMaintenance 85420.410575867
scalar OsgEarthNet.uav[84] utilizationEnergyCharge 201061.49084473
scalar OsgEarthNet.uav[84] utilizationEnergyOverdrawMission 0
scalar OsgEarthNet.uav[84] utilizationEnergyOverdrawMaintenance 0
scalar OsgEarthNet.uav[84] utilizationCountMissions 45
scalar OsgEarthNet.uav[84] utilizationCountManeuversMission 429
scalar OsgEarthNet.uav[84] utilizationCountManeuversMaintenance 90
scalar OsgEarthNet.uav[84] utilizationCountChargeState 45
scalar OsgEarthNet.uav[84] utilizationCountOverdrawnAfterMission 0
scalar OsgEarthNet.uav[84] utilizationCountIdleState 44
scalar OsgEarthNet.uav[84] utilizationFail 0
scalar OsgEarthNet.uav[84] simulationTime 259200
scalar OsgEarthNet.uav[85] utilizationSecMission 13143.060020285
scalar OsgEarthNet.uav[85] utilizationSecMaintenance 8505.1198250112
scalar OsgEarthNet.uav[85] utilizationSecCharge 79432.188074039
scalar OsgEarthNet.uav[85] utilizationSecIdle 158119.63108067
scalar OsgEarthNet.uav[85] utilizationEnergyMission 60185.306037903
scalar OsgEarthNet.uav[85] utilizationEnergyMaintenance 39802.504802704
scalar OsgEarthNet.uav[85] utilizationEnergyCharge 100243.84375
scalar OsgEarthNet.uav[85] utilizationEnergyOverdrawMission 0
scalar OsgEarthNet.uav[85] utilizationEnergyOverdrawMaintenance 0
scalar OsgEarthNet.uav[85] utilizationCountMissions 22
scalar OsgEarthNet.uav[85] utilizationCountManeuversMission 214
scalar OsgEarthNet.uav[85] utilizationCountManeuversMaintenance 44
scalar OsgEarthNet.uav[85] utilizationCountChargeState 22
scalar OsgEarthNet.uav[85] utilizationCountOverdrawnAfterMission 0
scalar OsgEarthNet.uav[85] utilizationCountIdleState 21
scalar OsgEarthNet.uav[85] utilizationFail 0
scalar OsgEarthNet.uav[85] simulationTime 259200
scalar OsgEarthNet.uav[86] utilizationSecMission 17036.074875657
scalar OsgEarthNet.uav[86] utilizationSecMaintenance 12507.306062357
scalar OsgEarthNet.uav[86] utilizationSecCharge 108890
scalar OsgEarthNet.uav[86] utilizationSecIdle 120766.61806199
scalar OsgEarthNet.uav[86] utilizationEnergyMission 79265.304191589
scalar OsgEarthNet.uav[86] utilizationEnergyMaintenance 57574.296634674
scalar OsgEarthNet.uav[86] utilizationEnergyCharge 136769.69824219
scalar OsgEarthNet.uav[86] utilizationEnergyOverdrawMission 0
scalar OsgEarthNet.uav[86] utilizationEnergyOverdrawMaintenance 0
scalar OsgEarthNet.uav[86] utilizationCountMissions 30
scalar OsgEarthNet.uav[86] utilizationCountManeuversMission 279
scalar OsgEarthNet.uav[86] utilizationCountManeuversMaintenance 60
scalar OsgEarthNet.uav[86] utilizationCountChargeState 30
scalar OsgEarthNet.uav[86] utilizationCountOverdrawnAfterMission 0
scalar OsgEarthNet.uav[86] utilizationCountIdleState 28
scalar OsgEarthNet.uav[86] utilizationFail 0
scalar OsgEarthNet.uav[86] simulationTime 259200
scalar OsgEarthNet.uav[87] utilizationSecMission 20329.954981951
scalar OsgEarthNet.uav[87] utilizationSecMaintenance 16559.306715755
scalar OsgEarthNet.uav[87] utilizationSecCharge 135490
scalar OsgEarthNet.uav[87] utilizationSecIdle 86820.737302294
scalar OsgEarthNet.uav[87] utilizationEnergyMission 94874.913024902
scalar OsgEarthNet.uav[87] utilizationEnergyMaintenance 76856.726875305
scalar OsgEarthNet.uav[87] utilizationEnergyCharge 171104.02563477
scalar OsgEarthNet.uav[87] utilizationEnergyOverdrawMission 0
scalar OsgEarthNet.uav[87] utilizationEnergyOverdrawMaintenance 0
scalar OsgEarthNet.uav[87] utilizationCountMissions 37
scalar OsgEarthNet.uav[87] utilizationCountManeuversMission 330
scalar OsgEarthNet.uav[87] utilizationCountManeuversMaintenance 74
scalar OsgEarthNet.uav[87] utilizationCountChargeState 37
scalar OsgEarthNet.uav[87] utilizationCountOverdrawnAfterMission 0
scalar OsgEarthNet.uav[87] utilizationCountIdleState 34
scalar OsgEarthNet.uav[87] utilizationFail 0
scalar OsgEarthNet.uav[87] simulationTime 259200
scalar OsgEarthNet.uav[88] utilizationSecMission 25666.368091533
scalar OsgEarthNet.uav[88] utilizationSecMaintenance 16107.942978581
scalar OsgEarthNet.uav[88] utilizationSecCharge 150078.23766585
scalar OsgEarthNet.uav[88] utilizationSecIdle 67347.450264031
scalar OsgEarthNet.uav[88] utilizationEnergyMission 117379.61300659
scalar OsgEarthNet.uav[88] utilizationEnergyMaintenance 73722.637573242
scalar OsgEarthNet.uav[88] utilizationEnergyCharge 189390.27075195
scalar OsgEarthNet.uav[88] utilizationEnergyOverdrawMission 0
scalar OsgEarthNet.uav[88] utilizationEnergyOverdrawMaintenance 0
scalar OsgEarthNet.uav[88] utilizationCountMissions 42
scalar OsgEarthNet.uav[88] utilizationCountManeuversMission 419
scalar OsgEarthNet.uav[88] utilizationCountManeuversMaintenance 84
scalar OsgEarthNet.uav[88] utilizationCountChargeState 42
scalar OsgEarthNet.uav[88] utilizationCountOverdrawnAfterMission 0
scalar OsgEarthNet.uav[88] utilizationCountIdleState 40
scalar OsgEarthNet.uav[88] utilizationFail 0
scalar OsgEarthNet.uav[88] simulationTime 259200
scalar OsgEarthNet.uav[89] utilizationSecMission 24073.244165672
scalar OsgEarthNet.uav[89] utilizationSecMaintenance 19443.252822224
scalar OsgEarthNet.uav[89] utilizationSecCharge 161240
scalar OsgEarthNet.uav[89] utilizationSecIdle 54443.502012105
scalar OsgEarthNet.uav[89] utilizationEnergyMission 111047.07039642
scalar OsgEarthNet.uav[89] utilizationEnergyMaintenance 90343.031257629
scalar OsgEarthNet.uav[89] utilizationEnergyCharge 201588.93579102
scalar OsgEarthNet.uav[89] utilizationEnergyOverdrawMission 0
scalar OsgEarthNet.uav[89] utilizationEnergyOverdrawMaintenance 0
scalar OsgEarthNet.uav[89] utilizationCountMissions 45
scalar OsgEarthNet.uav[89] utilizationCountManeuversMission 395
scalar OsgEarthNet.uav[89] utilizationCountManeuversMaintenance 90
scalar OsgEarthNet.uav[89] utilizationCountChargeState 45
scalar OsgEarthNet.uav[89] utilizationCountOverdrawnAfterMission 0
scalar OsgEarthNet.uav[89] utilizationCountIdleState 42
scalar OsgEarthNet.uav[89] utilizationFail 0
scalar OsgEarthNet.uav[89] simulationTime 259200
scalar OsgEarthNet.uav[90] utilizationSecMission 24486.60716135
scalar OsgEarthNet.uav[90] utilizationSecMaintenance 18248.026769055
scalar OsgEarthNet.uav[90] utilizationSecCharge 159390
scalar OsgEarthNet.uav[90] utilizationSecIdle 57075.365069595
scalar OsgEarthNet.uav[90] utilizationEnergyMission 113649.3328476
scalar OsgEarthNet.uav[90] utilizationEnergyMaintenance 86050.467529297
scalar OsgEarthNet.uav[90] utilizationEnergyCharge 200208.65161133
scalar OsgEarthNet.uav[90] utilizationEnergyOverdrawMission 0
scalar OsgEarthNet.uav[90] utilizationEnergyOverdrawMaintenance 0
scalar OsgEarthNet.uav[90] utilizationCountMissions 44
scalar OsgEarthNet.uav[90] utilizationCountManeuversMission 392
scalar OsgEarthNet.uav[90] utilizationCountManeuversMaintenance 88
scalar OsgEarthNet.uav[90] utilizationCountChargeState 44
scalar OsgEarthNet.uav[90] utilizationCountOverdrawnAfterMission 0
scalar OsgEarthNet.uav[90] utilizationCountIdleState 41
scalar OsgEarthNet.uav[90] utilizationFail 0
scalar OsgEarthNet.uav[90] simulationTime 259200
scalar OsgEarthNet.uav[91] utilizationSecMission 26813.923860735
scalar OsgEarthNet.uav[91] utilizationSecMaintenance 20006.155960908
scalar OsgEarthNet.uav[91] utilizationSecCharge 171460
scalar OsgEarthNet.uav[91] utilizationSecIdle 40919.919178358
scalar OsgEarthNet.uav[91] utilizationEnergyMission 123243.86780548
scalar OsgEarthNet.uav[91] utilizationEnergyMaintenance 92747.673686981
scalar OsgEarthNet.uav[91] utilizationEnergyCharge 216579.26220703
scalar OsgEarthNet.uav[91] utilizationEnergyOverdrawMission 0
scalar OsgEarthNet.uav[91] utilizationEnergyOverdrawMaintenance 0
scalar OsgEarthNet.uav[91] utilizationCountMissions 47
scalar OsgEarthNet.uav[91] utilizationCountManeuversMission 439
scalar OsgEarthNet.uav[91] utilizationCountManeuversMaintenance 94
scalar OsgEarthNet.uav[91] utilizationCountChargeState 47
scalar OsgEarthNet.uav[91] utilizationCountOverdrawnAfterMission 0
scalar OsgEarthNet.uav[91] utilizationCountIdleState 40
scalar OsgEarthNet.uav[91] utilizationFail 0
scalar OsgEarthNet.uav[91] simulationTime 259200
scalar OsgEarthNet.uav[92] utilizationSecMission 25895.658211388
scalar OsgEarthNet.uav[92] utilizationSecMaintenance 21022.03286932
scalar OsgEarthNet.uav[92] utilizationSecCharge 171371.64817175
scalar OsgEarthNet.uav[92] utilizationSecIdle 40910.659747539
scalar OsgEarthNet.uav[92] utilizationEnergyMission 120300.86418152
scalar OsgEarthNet.uav[92] utilizationEnergyMaintenance 97795.415843964
scalar OsgEarthNet.uav[92] utilizationEnergyCharge 217532.99755859
scalar OsgEarthNet.uav[92] utilizationEnergyOverdrawMission 0
scalar OsgEarthNet.uav[92] utilizationEnergyOverdrawMaintenance 0
scalar OsgEarthNet.uav[92] utilizationCountMissions 48
scalar OsgEarthNet.uav[92] utilizationCountManeuversMission 409
scalar OsgEarthNet.uav[92] utilizationCountManeuversMaintenance 96
scalar OsgEarthNet.uav[92] utilizationCountChargeState 48
scalar OsgEarthNet.uav[92] utilizationCountOverdrawnAfterMission 0
scalar OsgEarthNet.uav[92] utilizationCountIdleState 37
scalar OsgEarthNet.uav[92] utilizationFail 0
scalar OsgEarthNet.uav[92] simulationTime 259200
scalar OsgEarthNet.uav[93] utilizationSecMission 27135.377707668
scalar OsgEarthNet.uav[93] utilizationSecMaintenance 20398.43725383
scalar OsgEarthNet.uav[93] utilizationSecCharge 174570
scalar OsgEarthNet.uav[93] utilizationSecIdle 37096.184038502
scalar OsgEarthNet.uav[93] utilizationEnergyMission 124718.73971558
scalar OsgEarthNet.uav[93] utilizationEnergyMaintenance 94803.719711304
scalar OsgEarthNet.uav[93] utilizationEnergyCharge 219724.41088867
scalar OsgEarthNet.uav[93] utilizationEnergyOverdrawMission 0
scalar OsgEarthNet.uav[93] utilizationEnergyOverdrawMaintenance 0
scalar OsgEarthNet.uav[93] utilizationCountMissions 48
scalar OsgEarthNet.uav[93] utilizationCountManeuversMission 443
scalar OsgEarthNet.uav[93] utilizationCountManeuversMaintenance 96
scalar OsgEarthNet.uav[93] utilizationCountChargeState 48
scalar OsgEarthNet.uav[93] utilizationCountOverdrawnAfterMission 0
scalar OsgEarthNet.uav[93] utilizationCountIdleState 40
scalar OsgEarthNet.uav[93] utilizationFail 0
scalar OsgEarthNet.uav[93] simulationTime 259200
scalar OsgEarthNet.uav[94] utilizationSecMission 27469.919685083
scalar OsgEarthNet.uav[94] utilizationSecMaintenance 22068.079314917
scalar OsgEarthNet.uav[94] utilizationSecCharge 179190
scalar OsgEarthNet.uav[94] utilizationSecIdle 30472
scalar OsgEarthNet.uav[94] utilizationEnergyMission 126353.1693573
scalar OsgEarthNet.uav[94] utilizationEnergyMaintenance 101411.8513341
scalar OsgEarthNet.uav[94] utilizationEnergyCharge 226245.49731445
scalar OsgEarthNet.uav[94] utilizationEnergyOverdrawMission 0
scalar OsgEarthNet.uav[94] utilizationEnergyOverdrawMaintenance 0
scalar OsgEarthNet.uav[94] utilizationCountMissions 50
scalar OsgEarthNet.uav[94] utilizationCountManeuversMission 446
scalar OsgEarthNet.uav[94] utilizationCountManeuversMaintenance 100
scalar OsgEarthNet.uav[94] utilizationCountChargeState 50
scalar OsgEarthNet.uav[94] utilizationCountOverdrawnAfterMission 0
scalar OsgEarthNet.uav[94] utilizationCountIdleState 40
scalar OsgEarthNet.uav[94] utilizationFail 0
scalar OsgEarthNet.uav[94] simulationTime 259200
scalar OsgEarthNet.uav[95] utilizationSecMission 29124.800745321
scalar OsgEarthNet.uav[95] utilizationSecMaintenance 20299.800690551
scalar OsgEarthNet.uav[95] utilizationSecCharge 180376.17795021
scalar OsgEarthNet.uav[95] utilizationSecIdle 29399.219613916
scalar OsgEarthNet.uav[95] utilizationEnergyMission 135360.31170654
scalar OsgEarthNet.uav[95] utilizationEnergyMaintenance 92732.115287781
scalar OsgEarthNet.uav[95] utilizationEnergyCharge 228332.18164062
scalar OsgEarthNet.uav[95] utilizationEnergyOverdrawMission 0
scalar OsgEarthNet.uav[95] utilizationEnergyOverdrawMaintenance 0
scalar OsgEarthNet.uav[95] utilizationCountMissions 50
scalar OsgEarthNet.uav[95] utilizationCountManeuversMission 466
scalar OsgEarthNet.uav[95] utilizationCountManeuversMaintenance 100
scalar OsgEarthNet.uav[95] utilizationCountChargeState 50
scalar OsgEarthNet.uav[95] utilizationCountOverdrawnAfterMission 0
scalar OsgEarthNet.uav[95] utilizationCountIdleState 41
scalar OsgEarthNet.uav[95] utilizationFail 0
scalar OsgEarthNet.uav[95] simulationTime 259200
scalar OsgEarthNet.uav[96] utilizationSecMission 28364.25299641
scalar OsgEarthNet.uav[96] utilizationSecMaintenance 21249.724401064
scalar OsgEarthNet.uav[96] utilizationSecCharge 180750
scalar OsgEarthNet.uav[96] utilizationSecIdle 28836.021602526
scalar OsgEarthNet.uav[96] utilizationEnergyMission 131773.83875575
scalar OsgEarthNet.uav[96] utilizationEnergyMaintenance 99915.622169495
scalar OsgEarthNet.uav[96] utilizationEnergyCharge 228652.31933594
scalar OsgEarthNet.uav[96] utilizationEnergyOverdrawMission 0
scalar OsgEarthNet.uav[96] utilizationEnergyOverdrawMaintenance 0
scalar OsgEarthNet.uav[96] utilizationCountMissions 50
scalar OsgEarthNet.uav[96] utilizationCountManeuversMission 471
scalar OsgEarthNet.uav[96] utilizationCountManeuversMaintenance 101
scalar OsgEarthNet.uav[96] utilizationCountChargeState 50
scalar OsgEarthNet.uav[96] utilizationCountOverdrawnAfterMission 0
scalar OsgEarthNet.uav[96] utilizationCountIdleState 39
scalar OsgEarthNet.uav[96] utilizationFail 0
scalar OsgEarthNet.uav[96] simulationTime 259200
scalar OsgEarthNet.uav[97] utilizationSecMission 29563.6157806
scalar OsgEarthNet.uav[97] utilizationSecMaintenance 20282.397650459
scalar OsgEarthNet.uav[97] utilizationSecCharge 181811.38601868
scalar OsgEarthNet.uav[97] utilizationSecIdle 27542.599550256
scalar OsgEarthNet.uav[97] utilizationEnergyMission 137025.32308578
scalar OsgEarthNet.uav[97] utilizationEnergyMaintenance 93599.770835876
scalar OsgEarthNet.uav[97] utilizationEnergyCharge 230175.44726562
scalar OsgEarthNet.uav[97] utilizationEnergyOverdrawMission 0
scalar OsgEarthNet.uav[97] utilizationEnergyOverdrawMaintenance 0
scalar OsgEarthNet.uav[97] utilizationCountMissions 50
scalar OsgEarthNet.uav[97] utilizationCountManeuversMission 497
scalar OsgEarthNet.uav[97] utilizationCountManeuversMaintenance 100
scalar OsgEarthNet.uav[97] utilizationCountChargeState 50
scalar OsgEarthNet.uav[97] utilizationCountOverdrawnAfterMission 0
scalar OsgEarthNet.uav[97] utilizationCountIdleState 40
scalar OsgEarthNet.uav[97] utilizationFail 0
scalar OsgEarthNet.uav[97] simulationTime 259200
scalar OsgEarthNet.uav[98] utilizationSecMission 28832.796577252
scalar OsgEarthNet.uav[98] utilizationSecMaintenance 21814.522535097
scalar OsgEarthNet.uav[98] utilizationSecCharge 181651.00683827
scalar OsgEarthNet.uav[98] utilizationSecIdle 26901.673049383
scalar OsgEarthNet.uav[98] utilizationEnergyMission 133230.67162323
scalar OsgEarthNet.uav[98] utilizationEnergyMaintenance 101046.88133621
scalar OsgEarthNet.uav[98] utilizationEnergyCharge 231192.46606445
scalar OsgEarthNet.uav[98] utilizationEnergyOverdrawMission 0
scalar OsgEarthNet.uav[98] utilizationEnergyOverdrawMaintenance 36.538154602051
scalar OsgEarthNet.uav[98] utilizationCountMissions 51
scalar OsgEarthNet.uav[98] utilizationCountManeuversMission 472
scalar OsgEarthNet.uav[98] utilizationCountManeuversMaintenance 102
scalar OsgEarthNet.uav[98] utilizationCountChargeState 51
scalar OsgEarthNet.uav[98] utilizationCountOverdrawnAfterMission 1
scalar OsgEarthNet.uav[98] utilizationCountIdleState 39
scalar OsgEarthNet.uav[98] utilizationFail 0
scalar OsgEarthNet.uav[98] simulationTime 259200
scalar OsgEarthNet.uav[99] utilizationSecMission 30673.340744435
scalar OsgEarthNet.uav[99] utilizationSecMaintenance 21010.039577425
scalar OsgEarthNet.uav[99] utilizationSecCharge 184960
scalar OsgEarthNet.uav[99] utilizationSecIdle 22556.61867814
scalar OsgEarthNet.uav[99] utilizationEnergyMission 141823.87584686
scalar OsgEarthNet.uav[99] utilizationEnergyMaintenance 97654.732682905
scalar OsgEarthNet.uav[99] utilizationEnergyCharge 234979.43945312
scalar OsgEarthNet.uav[99] utilizationEnergyOverdrawMission 0
scalar OsgEarthNet.uav[99] utilizationEnergyOverdrawMaintenance 0
scalar OsgEarthNet.uav[99] utilizationCountMissions 52
scalar OsgEarthNet.uav[99] utilizationCountManeuversMission 506
scalar OsgEarthNet.uav[99] utilizationCountManeuversMaintenance 104
scalar OsgEarthNet.uav[99] utilizationCountChargeState 51
scalar OsgEarthNet.uav[99] utilizationCountOverdrawnAfterMission 0
scalar OsgEarthNet.uav[99] utilizationCountIdleState 36
scalar OsgEarthNet.uav[99] utilizationFail 0
scalar OsgEarthNet.uav[99] simulationTime 259200
scalar OsgEarthNet.cs[0] usedPower 2070949.9139011
scalar OsgEarthNet.cs[0] chargedPower 2070949.9139011
scalar OsgEarthNet.cs[0] chargedMobileNodes 422
scalar OsgEarthNet.cs[0] reservations 460
scalar OsgEarthNet.cs[1] usedPower 2836615.3514471
scalar OsgEarthNet.cs[1] chargedPower 2836615.3514471
scalar OsgEarthNet.cs[1] chargedMobileNodes 571
scalar OsgEarthNet.cs[1] reservations 616
scalar OsgEarthNet.cs[2] usedPower 4926256.4910256
scalar OsgEarthNet.cs[2] chargedPower 4926256.4910256
scalar OsgEarthNet.cs[2] chargedMobileNodes 1025
scalar OsgEarthNet.cs[2] reservations 1086

