version 2
run Szenario_Hotel_Gabelbach-19-20180710-11:24:02-34492
attr configname Szenario_Hotel_Gabelbach
attr datetime 20180710-11:24:02
attr experiment Szenario_Hotel_Gabelbach
attr inifile omnetpp.ini
attr iterationvars "$numUAVs=45, $replM=0"
attr iterationvarsf numUAVs=45,replM=0-
attr measurement "$numUAVs=45, $replM=0"
attr network OsgEarthNet
attr processid 34492
attr repetition 3
attr replication #3
attr resultdir results
attr runnumber 19
attr seedset 19
itervar numUAVs 45
itervar replM 0
param *.osgEarthScene.scene "\"Szenario_Hotel_Gabelbach.earth\""
param *.playgroundLatitude 50.6830269
param *.playgroundLongitude 10.8538055
param *.playgroundWidth 3500m
param *.playgroundHeight 3500m
param *.numCSs 3
param *.cs[0].posX 3537m
param *.cs[0].posY 965m
param *.cs[0].posZ 538m
param *.cs[1].posX 312m
param *.cs[1].posY 1262m
param *.cs[1].posZ 539m
param *.cs[2].posX 2185m
param *.cs[2].posY 3026m
param *.cs[2].posZ 777m
param *.cs[3].posX 10m
param *.cs[3].posY 2200m
param *.cs[3].posZ 560m
param *.cs[4].posX 750m
param *.cs[4].posY 200m
param *.cs[4].posZ 540m
param *.cs[5].posX 2450m
param *.cs[5].posY 180m
param *.cs[5].posZ 524m
param *.cs[6].posX 3140m
param *.cs[6].posY 1790m
param *.cs[6].posZ 606m
param *.numUAVs 45
param *.uav[*].replacementMethod 0
param *.*.timeStep 10s
param *.uav[*].commandPreviewCommandCount 20
param *.missionControl.missionFiles "\"missions\\\\Szenario_WB_Hotel_Gabelbach_Mission_Hotel.waypoints,missions\\\\Szenario_WB_Hotel_Gabelbach_Mission_Kickelhahn.waypoints,missions\\\\Szenario_WB_Hotel_Gabelbach_Mission_Ilmenau_Sportplatz.waypoints,missions\\\\Szenario_WB_Hotel_Gabelbach_Mission_Manebach_Mitte.waypoints,missions\\\\Szenario_WB_Hotel_Gabelbach_Mission_Manebach_Sued.waypoints\""
param *.missionControl.missionFiles "\"missions\\\\Szenario_WB_Hotel_Gabelbach_Mission_Hotel.waypoints,missions\\\\Szenario_WB_Hotel_Gabelbach_Mission_Kickelhahn.waypoints,missions\\\\Szenario_WB_Hotel_Gabelbach_Mission_Ilmenau_Sportplatz.waypoints,missions\\\\Szenario_WB_Hotel_Gabelbach_Mission_Manebach_Mitte.waypoints,missions\\\\Szenario_WB_Hotel_Gabelbach_Mission_Manebach_Sued.waypoints,missions\\\\Szenario_WB_Hotel_Gabelbach_Hover_HoheSchlaufe.waypoints,missions\\\\Szenario_WB_Hotel_Gabelbach_Hover_Kickelhahn.waypoints,missions\\\\Szenario_WB_Hotel_Gabelbach_Hover_Gabelbachskopf.waypoints,missions\\\\Szenario_WB_Hotel_Gabelbach_Hover_Dachskopf.waypoints\""
param *.uav[0].startX 3537m
param *.uav[0].startY 965m
param *.uav[0].startZ 539m
param *.uav[1].startX 312m
param *.uav[1].startY 1262m
param *.uav[1].startZ 540m
param *.uav[2].startX 2185m
param *.uav[2].startY 3026m
param *.uav[2].startZ 778m
param *.uav[3].startX 3537m
param *.uav[3].startY 965m
param *.uav[3].startZ 539m
param *.uav[4].startX 312m
param *.uav[4].startY 1262m
param *.uav[4].startZ 540m
param *.uav[5].startX 2185m
param *.uav[5].startY 3026m
param *.uav[5].startZ 778m
param *.uav[6].startX 3537m
param *.uav[6].startY 965m
param *.uav[6].startZ 539m
param *.uav[7].startX 312m
param *.uav[7].startY 1262m
param *.uav[7].startZ 540m
param *.uav[8].startX 2185m
param *.uav[8].startY 3026m
param *.uav[8].startZ 778m
param *.uav[9].startX 3537m
param *.uav[9].startY 965m
param *.uav[9].startZ 539m
param *.uav[10].startX 3537m
param *.uav[10].startY 965m
param *.uav[10].startZ 539m
param *.uav[11].startX 312m
param *.uav[11].startY 1262m
param *.uav[11].startZ 540m
param *.uav[12].startX 2185m
param *.uav[12].startY 3026m
param *.uav[12].startZ 778m
param *.uav[13].startX 3537m
param *.uav[13].startY 965m
param *.uav[13].startZ 539m
param *.uav[14].startX 312m
param *.uav[14].startY 1262m
param *.uav[14].startZ 540m
param *.uav[15].startX 2185m
param *.uav[15].startY 3026m
param *.uav[15].startZ 778m
param *.uav[16].startX 3537m
param *.uav[16].startY 965m
param *.uav[16].startZ 539m
param *.uav[17].startX 312m
param *.uav[17].startY 1262m
param *.uav[17].startZ 540m
param *.uav[18].startX 2185m
param *.uav[18].startY 3026m
param *.uav[18].startZ 778m
param *.uav[19].startX 3537m
param *.uav[19].startY 965m
param *.uav[19].startZ 539m
param *.uav[20].startX 3537m
param *.uav[20].startY 965m
param *.uav[20].startZ 539m
param *.uav[21].startX 312m
param *.uav[21].startY 1262m
param *.uav[21].startZ 540m
param *.uav[22].startX 2185m
param *.uav[22].startY 3026m
param *.uav[22].startZ 778m
param *.uav[23].startX 3537m
param *.uav[23].startY 965m
param *.uav[23].startZ 539m
param *.uav[24].startX 312m
param *.uav[24].startY 1262m
param *.uav[24].startZ 540m
param *.uav[25].startX 2185m
param *.uav[25].startY 3026m
param *.uav[25].startZ 778m
param *.uav[26].startX 3537m
param *.uav[26].startY 965m
param *.uav[26].startZ 539m
param *.uav[27].startX 312m
param *.uav[27].startY 1262m
param *.uav[27].startZ 540m
param *.uav[28].startX 2185m
param *.uav[28].startY 3026m
param *.uav[28].startZ 778m
param *.uav[29].startX 3537m
param *.uav[29].startY 965m
param *.uav[29].startZ 539m
param *.uav[30].startX 3537m
param *.uav[30].startY 965m
param *.uav[30].startZ 539m
param *.uav[31].startX 312m
param *.uav[31].startY 1262m
param *.uav[31].startZ 540m
param *.uav[32].startX 2185m
param *.uav[32].startY 3026m
param *.uav[32].startZ 778m
param *.uav[33].startX 3537m
param *.uav[33].startY 965m
param *.uav[33].startZ 539m
param *.uav[34].startX 312m
param *.uav[34].startY 1262m
param *.uav[34].startZ 540m
param *.uav[35].startX 2185m
param *.uav[35].startY 3026m
param *.uav[35].startZ 778m
param *.uav[36].startX 3537m
param *.uav[36].startY 965m
param *.uav[36].startZ 539m
param *.uav[37].startX 312m
param *.uav[37].startY 1262m
param *.uav[37].startZ 540m
param *.uav[38].startX 2185m
param *.uav[38].startY 3026m
param *.uav[38].startZ 778m
param *.uav[39].startX 3537m
param *.uav[39].startY 965m
param *.uav[39].startZ 539m
param *.uav[40].startX 3537m
param *.uav[40].startY 965m
param *.uav[40].startZ 539m
param *.uav[41].startX 312m
param *.uav[41].startY 1262m
param *.uav[41].startZ 540m
param *.uav[42].startX 2185m
param *.uav[42].startY 3026m
param *.uav[42].startZ 778m
param *.uav[43].startX 3537m
param *.uav[43].startY 965m
param *.uav[43].startZ 539m
param *.uav[44].startX 312m
param *.uav[44].startY 1262m
param *.uav[44].startZ 540m
param *.uav[45].startX 2185m
param *.uav[45].startY 3026m
param *.uav[45].startZ 778m
param *.uav[46].startX 3537m
param *.uav[46].startY 965m
param *.uav[46].startZ 539m
param *.uav[47].startX 312m
param *.uav[47].startY 1262m
param *.uav[47].startZ 540m
param *.uav[48].startX 2185m
param *.uav[48].startY 3026m
param *.uav[48].startZ 778m
param *.uav[49].startX 3537m
param *.uav[49].startY 965m
param *.uav[49].startZ 539m
param *.uav[50].startX 3537m
param *.uav[50].startY 965m
param *.uav[50].startZ 539m
param *.uav[51].startX 312m
param *.uav[51].startY 1262m
param *.uav[51].startZ 540m
param *.uav[52].startX 2185m
param *.uav[52].startY 3026m
param *.uav[52].startZ 778m
param *.uav[53].startX 3537m
param *.uav[53].startY 965m
param *.uav[53].startZ 539m
param *.uav[54].startX 312m
param *.uav[54].startY 1262m
param *.uav[54].startZ 540m
param *.uav[55].startX 2185m
param *.uav[55].startY 3026m
param *.uav[55].startZ 778m
param *.uav[56].startX 3537m
param *.uav[56].startY 965m
param *.uav[56].startZ 539m
param *.uav[57].startX 312m
param *.uav[57].startY 1262m
param *.uav[57].startZ 540m
param *.uav[58].startX 2185m
param *.uav[58].startY 3026m
param *.uav[58].startZ 778m
param *.uav[59].startX 3537m
param *.uav[59].startY 965m
param *.uav[59].startZ 539m
param *.uav[60].startX 3537m
param *.uav[60].startY 965m
param *.uav[60].startZ 539m
param *.uav[61].startX 312m
param *.uav[61].startY 1262m
param *.uav[61].startZ 540m
param *.uav[62].startX 2185m
param *.uav[62].startY 3026m
param *.uav[62].startZ 778m
param *.uav[63].startX 3537m
param *.uav[63].startY 965m
param *.uav[63].startZ 539m
param *.uav[64].startX 312m
param *.uav[64].startY 1262m
param *.uav[64].startZ 540m
param *.uav[65].startX 2185m
param *.uav[65].startY 3026m
param *.uav[65].startZ 778m
param *.uav[66].startX 3537m
param *.uav[66].startY 965m
param *.uav[66].startZ 539m
param *.uav[67].startX 312m
param *.uav[67].startY 1262m
param *.uav[67].startZ 540m
param *.uav[68].startX 2185m
param *.uav[68].startY 3026m
param *.uav[68].startZ 778m
param *.uav[69].startX 3537m
param *.uav[69].startY 965m
param *.uav[69].startZ 539m
param *.uav[70].startX 3537m
param *.uav[70].startY 965m
param *.uav[70].startZ 539m
param *.uav[71].startX 312m
param *.uav[71].startY 1262m
param *.uav[71].startZ 540m
param *.uav[72].startX 2185m
param *.uav[72].startY 3026m
param *.uav[72].startZ 778m
param *.uav[73].startX 3537m
param *.uav[73].startY 965m
param *.uav[73].startZ 539m
param *.uav[74].startX 312m
param *.uav[74].startY 1262m
param *.uav[74].startZ 540m
param *.uav[75].startX 2185m
param *.uav[75].startY 3026m
param *.uav[75].startZ 778m
param *.uav[76].startX 3537m
param *.uav[76].startY 965m
param *.uav[76].startZ 539m
param *.uav[77].startX 312m
param *.uav[77].startY 1262m
param *.uav[77].startZ 540m
param *.uav[78].startX 2185m
param *.uav[78].startY 3026m
param *.uav[78].startZ 778m
param *.uav[79].startX 3537m
param *.uav[79].startY 965m
param *.uav[79].startZ 539m
param *.uav[80].startX 3537m
param *.uav[80].startY 965m
param *.uav[80].startZ 539m
param *.uav[81].startX 312m
param *.uav[81].startY 1262m
param *.uav[81].startZ 540m
param *.uav[82].startX 2185m
param *.uav[82].startY 3026m
param *.uav[82].startZ 778m
param *.uav[83].startX 3537m
param *.uav[83].startY 965m
param *.uav[83].startZ 539m
param *.uav[84].startX 312m
param *.uav[84].startY 1262m
param *.uav[84].startZ 540m
param *.uav[85].startX 2185m
param *.uav[85].startY 3026m
param *.uav[85].startZ 778m
param *.uav[86].startX 3537m
param *.uav[86].startY 965m
param *.uav[86].startZ 539m
param *.uav[87].startX 312m
param *.uav[87].startY 1262m
param *.uav[87].startZ 540m
param *.uav[88].startX 2185m
param *.uav[88].startY 3026m
param *.uav[88].startZ 778m
param *.uav[89].startX 3537m
param *.uav[89].startY 965m
param *.uav[89].startZ 539m
param *.uav[90].startX 3537m
param *.uav[90].startY 965m
param *.uav[90].startZ 539m
param *.uav[91].startX 312m
param *.uav[91].startY 1262m
param *.uav[91].startZ 540m
param *.uav[92].startX 2185m
param *.uav[92].startY 3026m
param *.uav[92].startZ 778m
param *.uav[93].startX 3537m
param *.uav[93].startY 965m
param *.uav[93].startZ 539m
param *.uav[94].startX 312m
param *.uav[94].startY 1262m
param *.uav[94].startZ 540m
param *.uav[95].startX 2185m
param *.uav[95].startY 3026m
param *.uav[95].startZ 778m
param *.uav[96].startX 3537m
param *.uav[96].startY 965m
param *.uav[96].startZ 539m
param *.uav[97].startX 312m
param *.uav[97].startY 1262m
param *.uav[97].startZ 540m
param *.uav[98].startX 2185m
param *.uav[98].startY 3026m
param *.uav[98].startZ 778m
param *.uav[99].startX 3537m
param *.uav[99].startY 965m
param *.uav[99].startZ 539m
param *.osgEarthScene.scene "\"boston.earth\""
param *.playgroundLatitude 42.3558
param *.playgroundLongitude -71.0677
param *.playgroundWidth 400m
param *.playgroundHeight 200m
param *.channelController.connectionColor "\"#0000FF40\""
param *.channelController.showConnections false
param *.uav[*].modelURL "\"quadrocopter.small.obj.15.scale.0,0,90.rot\""
param *.uav[*].labelColor "\"#FF7C00CC\""
param *.uav[*].label2Color "\"#FF7C00EE\""
param *.uav[*].batteryCapacity 5200mAh
param *.uav[*].batteryRemaining uav[index].batteryCapacity
param *.uav[*].predictionQuantile 0.95
param *.uav[*].replacementMethod 2
param *.uav[*].weightedSumWeight 0.5
param *.cs[*].modelURL "\"chargingstation_v1.osgt.2.scale.0,0,0.rot.0,0,-15e-1.trans\""
param *.cs[*].spotsWaiting 999
param *.cs[*].spotsCharging 999
param *.cs[*].chargeEffectivenessPercentage 100
param *.cs[*].nonLinearPhaseStartPercentage 85
param *.cs[*].chargeCurrent 6.0A
param *.cs[*].prioritizeFastCharge true
param *.missionControl.replacementSearchMethod 0
param *.*.timeStep 9s

scalar OsgEarthNet.uav[0] utilizationSecMission 27557.916161051
scalar OsgEarthNet.uav[0] utilizationSecMaintenance 18060.534143689
scalar OsgEarthNet.uav[0] utilizationSecCharge 165434.13119495
scalar OsgEarthNet.uav[0] utilizationSecIdle 48147.417500308
scalar OsgEarthNet.uav[0] utilizationEnergyMission 127143.68164825
scalar OsgEarthNet.uav[0] utilizationEnergyMaintenance 84209.339828491
scalar OsgEarthNet.uav[0] utilizationEnergyCharge 207214.54852295
scalar OsgEarthNet.uav[0] utilizationEnergyOverdrawMission 0
scalar OsgEarthNet.uav[0] utilizationEnergyOverdrawMaintenance 0
scalar OsgEarthNet.uav[0] utilizationCountMissions 47
scalar OsgEarthNet.uav[0] utilizationCountManeuversMission 439
scalar OsgEarthNet.uav[0] utilizationCountManeuversMaintenance 94
scalar OsgEarthNet.uav[0] utilizationCountChargeState 47
scalar OsgEarthNet.uav[0] utilizationCountOverdrawnAfterMission 0
scalar OsgEarthNet.uav[0] utilizationCountIdleState 47
scalar OsgEarthNet.uav[0] utilizationFail 0
scalar OsgEarthNet.uav[0] simulationTime 259200
scalar OsgEarthNet.uav[1] utilizationSecMission 29501.406830331
scalar OsgEarthNet.uav[1] utilizationSecMaintenance 19614.621495981
scalar OsgEarthNet.uav[1] utilizationSecCharge 181530
scalar OsgEarthNet.uav[1] utilizationSecIdle 28553.970673687
scalar OsgEarthNet.uav[1] utilizationEnergyMission 135872.08987045
scalar OsgEarthNet.uav[1] utilizationEnergyMaintenance 92137.961215973
scalar OsgEarthNet.uav[1] utilizationEnergyCharge 228121.52246094
scalar OsgEarthNet.uav[1] utilizationEnergyOverdrawMission 0
scalar OsgEarthNet.uav[1] utilizationEnergyOverdrawMaintenance 0
scalar OsgEarthNet.uav[1] utilizationCountMissions 50
scalar OsgEarthNet.uav[1] utilizationCountManeuversMission 481
scalar OsgEarthNet.uav[1] utilizationCountManeuversMaintenance 100
scalar OsgEarthNet.uav[1] utilizationCountChargeState 50
scalar OsgEarthNet.uav[1] utilizationCountOverdrawnAfterMission 0
scalar OsgEarthNet.uav[1] utilizationCountIdleState 51
scalar OsgEarthNet.uav[1] utilizationFail 0
scalar OsgEarthNet.uav[1] simulationTime 259200
scalar OsgEarthNet.uav[2] utilizationSecMission 31253.520116273
scalar OsgEarthNet.uav[2] utilizationSecMaintenance 16827.822084984
scalar OsgEarthNet.uav[2] utilizationSecCharge 175520
scalar OsgEarthNet.uav[2] utilizationSecIdle 35598.656798743
scalar OsgEarthNet.uav[2] utilizationEnergyMission 143450.73260498
scalar OsgEarthNet.uav[2] utilizationEnergyMaintenance 77960.318145752
scalar OsgEarthNet.uav[2] utilizationEnergyCharge 221409.17529297
scalar OsgEarthNet.uav[2] utilizationEnergyOverdrawMission 0
scalar OsgEarthNet.uav[2] utilizationEnergyOverdrawMaintenance 0
scalar OsgEarthNet.uav[2] utilizationCountMissions 48
scalar OsgEarthNet.uav[2] utilizationCountManeuversMission 511
scalar OsgEarthNet.uav[2] utilizationCountManeuversMaintenance 96
scalar OsgEarthNet.uav[2] utilizationCountChargeState 48
scalar OsgEarthNet.uav[2] utilizationCountOverdrawnAfterMission 0
scalar OsgEarthNet.uav[2] utilizationCountIdleState 49
scalar OsgEarthNet.uav[2] utilizationFail 0
scalar OsgEarthNet.uav[2] simulationTime 259200
scalar OsgEarthNet.uav[3] utilizationSecMission 27231.210144908
scalar OsgEarthNet.uav[3] utilizationSecMaintenance 22259.56218677
scalar OsgEarthNet.uav[3] utilizationSecCharge 179044.60558642
scalar OsgEarthNet.uav[3] utilizationSecIdle 30664.621081902
scalar OsgEarthNet.uav[3] utilizationEnergyMission 125935.70172119
scalar OsgEarthNet.uav[3] utilizationEnergyMaintenance 104894.85965347
scalar OsgEarthNet.uav[3] utilizationEnergyCharge 225553.35775757
scalar OsgEarthNet.uav[3] utilizationEnergyOverdrawMission 0
scalar OsgEarthNet.uav[3] utilizationEnergyOverdrawMaintenance 0
scalar OsgEarthNet.uav[3] utilizationCountMissions 50
scalar OsgEarthNet.uav[3] utilizationCountManeuversMission 456
scalar OsgEarthNet.uav[3] utilizationCountManeuversMaintenance 100
scalar OsgEarthNet.uav[3] utilizationCountChargeState 50
scalar OsgEarthNet.uav[3] utilizationCountOverdrawnAfterMission 0
scalar OsgEarthNet.uav[3] utilizationCountIdleState 50
scalar OsgEarthNet.uav[3] utilizationFail 0
scalar OsgEarthNet.uav[3] simulationTime 259200
scalar OsgEarthNet.uav[4] utilizationSecMission 27622.676946159
scalar OsgEarthNet.uav[4] utilizationSecMaintenance 21537.99038374
scalar OsgEarthNet.uav[4] utilizationSecCharge 180512.01658389
scalar OsgEarthNet.uav[4] utilizationSecIdle 29527.315086215
scalar OsgEarthNet.uav[4] utilizationEnergyMission 126835.54888153
scalar OsgEarthNet.uav[4] utilizationEnergyMaintenance 100321.93127441
scalar OsgEarthNet.uav[4] utilizationEnergyCharge 226802.57788086
scalar OsgEarthNet.uav[4] utilizationEnergyOverdrawMission 0
scalar OsgEarthNet.uav[4] utilizationEnergyOverdrawMaintenance 0
scalar OsgEarthNet.uav[4] utilizationCountMissions 50
scalar OsgEarthNet.uav[4] utilizationCountManeuversMission 453
scalar OsgEarthNet.uav[4] utilizationCountManeuversMaintenance 100
scalar OsgEarthNet.uav[4] utilizationCountChargeState 50
scalar OsgEarthNet.uav[4] utilizationCountOverdrawnAfterMission 0
scalar OsgEarthNet.uav[4] utilizationCountIdleState 50
scalar OsgEarthNet.uav[4] utilizationFail 0
scalar OsgEarthNet.uav[4] simulationTime 259200
scalar OsgEarthNet.uav[5] utilizationSecMission 30823.089890426
scalar OsgEarthNet.uav[5] utilizationSecMaintenance 18122.986330008
scalar OsgEarthNet.uav[5] utilizationSecCharge 178606.47251554
scalar OsgEarthNet.uav[5] utilizationSecIdle 31647.450264031
scalar OsgEarthNet.uav[5] utilizationEnergyMission 141966.54486084
scalar OsgEarthNet.uav[5] utilizationEnergyMaintenance 83995.844284058
scalar OsgEarthNet.uav[5] utilizationEnergyCharge 224840.6965332
scalar OsgEarthNet.uav[5] utilizationEnergyOverdrawMission 0
scalar OsgEarthNet.uav[5] utilizationEnergyOverdrawMaintenance 0
scalar OsgEarthNet.uav[5] utilizationCountMissions 50
scalar OsgEarthNet.uav[5] utilizationCountManeuversMission 506
scalar OsgEarthNet.uav[5] utilizationCountManeuversMaintenance 100
scalar OsgEarthNet.uav[5] utilizationCountChargeState 50
scalar OsgEarthNet.uav[5] utilizationCountOverdrawnAfterMission 0
scalar OsgEarthNet.uav[5] utilizationCountIdleState 50
scalar OsgEarthNet.uav[5] utilizationFail 0
scalar OsgEarthNet.uav[5] simulationTime 259200
scalar OsgEarthNet.uav[6] utilizationSecMission 28482.6290956
scalar OsgEarthNet.uav[6] utilizationSecMaintenance 21670.910546246
scalar OsgEarthNet.uav[6] utilizationSecCharge 181040.01912673
scalar OsgEarthNet.uav[6] utilizationSecIdle 28006.440231419
scalar OsgEarthNet.uav[6] utilizationEnergyMission 131018.50689697
scalar OsgEarthNet.uav[6] utilizationEnergyMaintenance 100464.75627136
scalar OsgEarthNet.uav[6] utilizationEnergyCharge 227387.67114258
scalar OsgEarthNet.uav[6] utilizationEnergyOverdrawMission 0
scalar OsgEarthNet.uav[6] utilizationEnergyOverdrawMaintenance 0
scalar OsgEarthNet.uav[6] utilizationCountMissions 51
scalar OsgEarthNet.uav[6] utilizationCountManeuversMission 466
scalar OsgEarthNet.uav[6] utilizationCountManeuversMaintenance 102
scalar OsgEarthNet.uav[6] utilizationCountChargeState 51
scalar OsgEarthNet.uav[6] utilizationCountOverdrawnAfterMission 0
scalar OsgEarthNet.uav[6] utilizationCountIdleState 51
scalar OsgEarthNet.uav[6] utilizationFail 0
scalar OsgEarthNet.uav[6] simulationTime 259200
scalar OsgEarthNet.uav[7] utilizationSecMission 26852.931759132
scalar OsgEarthNet.uav[7] utilizationSecMaintenance 21413.204570291
scalar OsgEarthNet.uav[7] utilizationSecCharge 176370
scalar OsgEarthNet.uav[7] utilizationSecIdle 34563.862670577
scalar OsgEarthNet.uav[7] utilizationEnergyMission 124345.07743336
scalar OsgEarthNet.uav[7] utilizationEnergyMaintenance 99840.158275604
scalar OsgEarthNet.uav[7] utilizationEnergyCharge 220932.33789062
scalar OsgEarthNet.uav[7] utilizationEnergyOverdrawMission 0
scalar OsgEarthNet.uav[7] utilizationEnergyOverdrawMaintenance 0
scalar OsgEarthNet.uav[7] utilizationCountMissions 49
scalar OsgEarthNet.uav[7] utilizationCountManeuversMission 433
scalar OsgEarthNet.uav[7] utilizationCountManeuversMaintenance 99
scalar OsgEarthNet.uav[7] utilizationCountChargeState 49
scalar OsgEarthNet.uav[7] utilizationCountOverdrawnAfterMission 0
scalar OsgEarthNet.uav[7] utilizationCountIdleState 50
scalar OsgEarthNet.uav[7] utilizationFail 0
scalar OsgEarthNet.uav[7] simulationTime 259200
scalar OsgEarthNet.uav[8] utilizationSecMission 19581.226140872
scalar OsgEarthNet.uav[8] utilizationSecMaintenance 13731.80648879
scalar OsgEarthNet.uav[8] utilizationSecCharge 122570
scalar OsgEarthNet.uav[8] utilizationSecIdle 103316.96637034
scalar OsgEarthNet.uav[8] utilizationEnergyMission 91729.886680603
scalar OsgEarthNet.uav[8] utilizationEnergyMaintenance 62137.003639221
scalar OsgEarthNet.uav[8] utilizationEnergyCharge 153543.92773438
scalar OsgEarthNet.uav[8] utilizationEnergyOverdrawMission 0
scalar OsgEarthNet.uav[8] utilizationEnergyOverdrawMaintenance 0
scalar OsgEarthNet.uav[8] utilizationCountMissions 34
scalar OsgEarthNet.uav[8] utilizationCountManeuversMission 317
scalar OsgEarthNet.uav[8] utilizationCountManeuversMaintenance 68
scalar OsgEarthNet.uav[8] utilizationCountChargeState 34
scalar OsgEarthNet.uav[8] utilizationCountOverdrawnAfterMission 0
scalar OsgEarthNet.uav[8] utilizationCountIdleState 34
scalar OsgEarthNet.uav[8] utilizationFail 0
scalar OsgEarthNet.uav[8] simulationTime 259200
scalar OsgEarthNet.uav[9] utilizationSecMission 26473.199607861
scalar OsgEarthNet.uav[9] utilizationSecMaintenance 21220.997459336
scalar OsgEarthNet.uav[9] utilizationSecCharge 174320.68495086
scalar OsgEarthNet.uav[9] utilizationSecIdle 37185.116981948
scalar OsgEarthNet.uav[9] utilizationEnergyMission 122524.77262115
scalar OsgEarthNet.uav[9] utilizationEnergyMaintenance 98408.501590729
scalar OsgEarthNet.uav[9] utilizationEnergyCharge 220607.91455078
scalar OsgEarthNet.uav[9] utilizationEnergyOverdrawMission 0
scalar OsgEarthNet.uav[9] utilizationEnergyOverdrawMaintenance 0
scalar OsgEarthNet.uav[9] utilizationCountMissions 48
scalar OsgEarthNet.uav[9] utilizationCountManeuversMission 442
scalar OsgEarthNet.uav[9] utilizationCountManeuversMaintenance 96
scalar OsgEarthNet.uav[9] utilizationCountChargeState 48
scalar OsgEarthNet.uav[9] utilizationCountOverdrawnAfterMission 0
scalar OsgEarthNet.uav[9] utilizationCountIdleState 48
scalar OsgEarthNet.uav[9] utilizationFail 0
scalar OsgEarthNet.uav[9] simulationTime 259200
scalar OsgEarthNet.uav[10] utilizationSecMission 27375.853158365
scalar OsgEarthNet.uav[10] utilizationSecMaintenance 20633.57541531
scalar OsgEarthNet.uav[10] utilizationSecCharge 177270
scalar OsgEarthNet.uav[10] utilizationSecIdle 33920.570426326
scalar OsgEarthNet.uav[10] utilizationEnergyMission 127986.63006592
scalar OsgEarthNet.uav[10] utilizationEnergyMaintenance 95232.887812854
scalar OsgEarthNet.uav[10] utilizationEnergyCharge 222413.42626953
scalar OsgEarthNet.uav[10] utilizationEnergyOverdrawMission 0
scalar OsgEarthNet.uav[10] utilizationEnergyOverdrawMaintenance 0
scalar OsgEarthNet.uav[10] utilizationCountMissions 49
scalar OsgEarthNet.uav[10] utilizationCountManeuversMission 454
scalar OsgEarthNet.uav[10] utilizationCountManeuversMaintenance 99
scalar OsgEarthNet.uav[10] utilizationCountChargeState 49
scalar OsgEarthNet.uav[10] utilizationCountOverdrawnAfterMission 0
scalar OsgEarthNet.uav[10] utilizationCountIdleState 49
scalar OsgEarthNet.uav[10] utilizationFail 0
scalar OsgEarthNet.uav[10] simulationTime 259200
scalar OsgEarthNet.uav[11] utilizationSecMission 25965.174431624
scalar OsgEarthNet.uav[11] utilizationSecMaintenance 21893.768764415
scalar OsgEarthNet.uav[11] utilizationSecCharge 177150
scalar OsgEarthNet.uav[11] utilizationSecIdle 34191.055803961
scalar OsgEarthNet.uav[11] utilizationEnergyMission 122323.88580771
scalar OsgEarthNet.uav[11] utilizationEnergyMaintenance 102167.97887802
scalar OsgEarthNet.uav[11] utilizationEnergyCharge 222037.96899414
scalar OsgEarthNet.uav[11] utilizationEnergyOverdrawMission 0
scalar OsgEarthNet.uav[11] utilizationEnergyOverdrawMaintenance 0
scalar OsgEarthNet.uav[11] utilizationCountMissions 49
scalar OsgEarthNet.uav[11] utilizationCountManeuversMission 428
scalar OsgEarthNet.uav[11] utilizationCountManeuversMaintenance 99
scalar OsgEarthNet.uav[11] utilizationCountChargeState 49
scalar OsgEarthNet.uav[11] utilizationCountOverdrawnAfterMission 0
scalar OsgEarthNet.uav[11] utilizationCountIdleState 49
scalar OsgEarthNet.uav[11] utilizationFail 0
scalar OsgEarthNet.uav[11] simulationTime 259200
scalar OsgEarthNet.uav[12] utilizationSecMission 30231.065673523
scalar OsgEarthNet.uav[12] utilizationSecMaintenance 19096.933326477
scalar OsgEarthNet.uav[12] utilizationSecCharge 181140
scalar OsgEarthNet.uav[12] utilizationSecIdle 28732
scalar OsgEarthNet.uav[12] utilizationEnergyMission 139890.56941051
scalar OsgEarthNet.uav[12] utilizationEnergyMaintenance 88127.810271949
scalar OsgEarthNet.uav[12] utilizationEnergyCharge 227679.68383789
scalar OsgEarthNet.uav[12] utilizationEnergyOverdrawMission 0
scalar OsgEarthNet.uav[12] utilizationEnergyOverdrawMaintenance 0
scalar OsgEarthNet.uav[12] utilizationCountMissions 50
scalar OsgEarthNet.uav[12] utilizationCountManeuversMission 491
scalar OsgEarthNet.uav[12] utilizationCountManeuversMaintenance 100
scalar OsgEarthNet.uav[12] utilizationCountChargeState 50
scalar OsgEarthNet.uav[12] utilizationCountOverdrawnAfterMission 0
scalar OsgEarthNet.uav[12] utilizationCountIdleState 50
scalar OsgEarthNet.uav[12] utilizationFail 0
scalar OsgEarthNet.uav[12] simulationTime 259200
scalar OsgEarthNet.uav[13] utilizationSecMission 27948.879323098
scalar OsgEarthNet.uav[13] utilizationSecMaintenance 20723.041884122
scalar OsgEarthNet.uav[13] utilizationSecCharge 175070
scalar OsgEarthNet.uav[13] utilizationSecIdle 35458.077792781
scalar OsgEarthNet.uav[13] utilizationEnergyMission 127451.11947853
scalar OsgEarthNet.uav[13] utilizationEnergyMaintenance 96597.433849335
scalar OsgEarthNet.uav[13] utilizationEnergyCharge 220397.5
scalar OsgEarthNet.uav[13] utilizationEnergyOverdrawMission 0
scalar OsgEarthNet.uav[13] utilizationEnergyOverdrawMaintenance 0
scalar OsgEarthNet.uav[13] utilizationCountMissions 48
scalar OsgEarthNet.uav[13] utilizationCountManeuversMission 466
scalar OsgEarthNet.uav[13] utilizationCountManeuversMaintenance 97
scalar OsgEarthNet.uav[13] utilizationCountChargeState 48
scalar OsgEarthNet.uav[13] utilizationCountOverdrawnAfterMission 0
scalar OsgEarthNet.uav[13] utilizationCountIdleState 48
scalar OsgEarthNet.uav[13] utilizationFail 0
scalar OsgEarthNet.uav[13] simulationTime 259200
scalar OsgEarthNet.uav[14] utilizationSecMission 30281.975897758
scalar OsgEarthNet.uav[14] utilizationSecMaintenance 15446.906277116
scalar OsgEarthNet.uav[14] utilizationSecCharge 164131.09854221
scalar OsgEarthNet.uav[14] utilizationSecIdle 49340.018282913
scalar OsgEarthNet.uav[14] utilizationEnergyMission 139107.46252441
scalar OsgEarthNet.uav[14] utilizationEnergyMaintenance 70746.2670784
scalar OsgEarthNet.uav[14] utilizationEnergyCharge 206456.19213867
scalar OsgEarthNet.uav[14] utilizationEnergyOverdrawMission 0
scalar OsgEarthNet.uav[14] utilizationEnergyOverdrawMaintenance 0
scalar OsgEarthNet.uav[14] utilizationCountMissions 46
scalar OsgEarthNet.uav[14] utilizationCountManeuversMission 482
scalar OsgEarthNet.uav[14] utilizationCountManeuversMaintenance 92
scalar OsgEarthNet.uav[14] utilizationCountChargeState 46
scalar OsgEarthNet.uav[14] utilizationCountOverdrawnAfterMission 0
scalar OsgEarthNet.uav[14] utilizationCountIdleState 46
scalar OsgEarthNet.uav[14] utilizationFail 0
scalar OsgEarthNet.uav[14] simulationTime 259200
scalar OsgEarthNet.uav[15] utilizationSecMission 27833.388339871
scalar OsgEarthNet.uav[15] utilizationSecMaintenance 20384.646840129
scalar OsgEarthNet.uav[15] utilizationSecCharge 174746.5081666
scalar OsgEarthNet.uav[15] utilizationSecIdle 36235.455653403
scalar OsgEarthNet.uav[15] utilizationEnergyMission 128531.82958984
scalar OsgEarthNet.uav[15] utilizationEnergyMaintenance 94056.75995636
scalar OsgEarthNet.uav[15] utilizationEnergyCharge 220143.20214844
scalar OsgEarthNet.uav[15] utilizationEnergyOverdrawMission 0
scalar OsgEarthNet.uav[15] utilizationEnergyOverdrawMaintenance 0
scalar OsgEarthNet.uav[15] utilizationCountMissions 49
scalar OsgEarthNet.uav[15] utilizationCountManeuversMission 452
scalar OsgEarthNet.uav[15] utilizationCountManeuversMaintenance 98
scalar OsgEarthNet.uav[15] utilizationCountChargeState 49
scalar OsgEarthNet.uav[15] utilizationCountOverdrawnAfterMission 0
scalar OsgEarthNet.uav[15] utilizationCountIdleState 45
scalar OsgEarthNet.uav[15] utilizationFail 0
scalar OsgEarthNet.uav[15] simulationTime 259200
scalar OsgEarthNet.uav[16] utilizationSecMission 25038.643450042
scalar OsgEarthNet.uav[16] utilizationSecMaintenance 17395.959292771
scalar OsgEarthNet.uav[16] utilizationSecCharge 154950
scalar OsgEarthNet.uav[16] utilizationSecIdle 61815.396257187
scalar OsgEarthNet.uav[16] utilizationEnergyMission 114511.24151993
scalar OsgEarthNet.uav[16] utilizationEnergyMaintenance 79958.919387817
scalar OsgEarthNet.uav[16] utilizationEnergyCharge 194682.98852539
scalar OsgEarthNet.uav[16] utilizationEnergyOverdrawMission 0
scalar OsgEarthNet.uav[16] utilizationEnergyOverdrawMaintenance 0
scalar OsgEarthNet.uav[16] utilizationCountMissions 43
scalar OsgEarthNet.uav[16] utilizationCountManeuversMission 417
scalar OsgEarthNet.uav[16] utilizationCountManeuversMaintenance 86
scalar OsgEarthNet.uav[16] utilizationCountChargeState 43
scalar OsgEarthNet.uav[16] utilizationCountOverdrawnAfterMission 0
scalar OsgEarthNet.uav[16] utilizationCountIdleState 42
scalar OsgEarthNet.uav[16] utilizationFail 0
scalar OsgEarthNet.uav[16] simulationTime 259200
scalar OsgEarthNet.uav[17] utilizationSecMission 24426.731279827
scalar OsgEarthNet.uav[17] utilizationSecMaintenance 18399.907766199
scalar OsgEarthNet.uav[17] utilizationSecCharge 154930.88783687
scalar OsgEarthNet.uav[17] utilizationSecIdle 61442.472117105
scalar OsgEarthNet.uav[17] utilizationEnergyMission 112043.08858871
scalar OsgEarthNet.uav[17] utilizationEnergyMaintenance 86233.276390076
scalar OsgEarthNet.uav[17] utilizationEnergyCharge 195958.79174805
scalar OsgEarthNet.uav[17] utilizationEnergyOverdrawMission 0
scalar OsgEarthNet.uav[17] utilizationEnergyOverdrawMaintenance 0
scalar OsgEarthNet.uav[17] utilizationCountMissions 43
scalar OsgEarthNet.uav[17] utilizationCountManeuversMission 406
scalar OsgEarthNet.uav[17] utilizationCountManeuversMaintenance 86
scalar OsgEarthNet.uav[17] utilizationCountChargeState 43
scalar OsgEarthNet.uav[17] utilizationCountOverdrawnAfterMission 0
scalar OsgEarthNet.uav[17] utilizationCountIdleState 40
scalar OsgEarthNet.uav[17] utilizationFail 0
scalar OsgEarthNet.uav[17] simulationTime 259200
scalar OsgEarthNet.uav[18] utilizationSecMission 26484.969282041
scalar OsgEarthNet.uav[18] utilizationSecMaintenance 21115.604370668
scalar OsgEarthNet.uav[18] utilizationSecCharge 173790
scalar OsgEarthNet.uav[18] utilizationSecIdle 37809.42534729
scalar OsgEarthNet.uav[18] utilizationEnergyMission 122397.49199671
scalar OsgEarthNet.uav[18] utilizationEnergyMaintenance 97746.690746307
scalar OsgEarthNet.uav[18] utilizationEnergyCharge 218226.57373047
scalar OsgEarthNet.uav[18] utilizationEnergyOverdrawMission 0
scalar OsgEarthNet.uav[18] utilizationEnergyOverdrawMaintenance 0
scalar OsgEarthNet.uav[18] utilizationCountMissions 48
scalar OsgEarthNet.uav[18] utilizationCountManeuversMission 434
scalar OsgEarthNet.uav[18] utilizationCountManeuversMaintenance 97
scalar OsgEarthNet.uav[18] utilizationCountChargeState 48
scalar OsgEarthNet.uav[18] utilizationCountOverdrawnAfterMission 0
scalar OsgEarthNet.uav[18] utilizationCountIdleState 48
scalar OsgEarthNet.uav[18] utilizationFail 0
scalar OsgEarthNet.uav[18] simulationTime 259200
scalar OsgEarthNet.uav[19] utilizationSecMission 28528.516580017
scalar OsgEarthNet.uav[19] utilizationSecMaintenance 20850.285838446
scalar OsgEarthNet.uav[19] utilizationSecCharge 177500
scalar OsgEarthNet.uav[19] utilizationSecIdle 32321.196581537
scalar OsgEarthNet.uav[19] utilizationEnergyMission 131095.02025604
scalar OsgEarthNet.uav[19] utilizationEnergyMaintenance 96564.886705217
scalar OsgEarthNet.uav[19] utilizationEnergyCharge 223395.54003906
scalar OsgEarthNet.uav[19] utilizationEnergyOverdrawMission 0
scalar OsgEarthNet.uav[19] utilizationEnergyOverdrawMaintenance 0
scalar OsgEarthNet.uav[19] utilizationCountMissions 50
scalar OsgEarthNet.uav[19] utilizationCountManeuversMission 470
scalar OsgEarthNet.uav[19] utilizationCountManeuversMaintenance 100
scalar OsgEarthNet.uav[19] utilizationCountChargeState 49
scalar OsgEarthNet.uav[19] utilizationCountOverdrawnAfterMission 0
scalar OsgEarthNet.uav[19] utilizationCountIdleState 48
scalar OsgEarthNet.uav[19] utilizationFail 0
scalar OsgEarthNet.uav[19] simulationTime 259200
scalar OsgEarthNet.uav[20] utilizationSecMission 26959.960435883
scalar OsgEarthNet.uav[20] utilizationSecMaintenance 21156.289209148
scalar OsgEarthNet.uav[20] utilizationSecCharge 175101.30046301
scalar OsgEarthNet.uav[20] utilizationSecIdle 35982.44889196
scalar OsgEarthNet.uav[20] utilizationEnergyMission 124548.77333832
scalar OsgEarthNet.uav[20] utilizationEnergyMaintenance 97339.755805969
scalar OsgEarthNet.uav[20] utilizationEnergyCharge 221013.59204102
scalar OsgEarthNet.uav[20] utilizationEnergyOverdrawMission 0
scalar OsgEarthNet.uav[20] utilizationEnergyOverdrawMaintenance 0
scalar OsgEarthNet.uav[20] utilizationCountMissions 49
scalar OsgEarthNet.uav[20] utilizationCountManeuversMission 434
scalar OsgEarthNet.uav[20] utilizationCountManeuversMaintenance 98
scalar OsgEarthNet.uav[20] utilizationCountChargeState 49
scalar OsgEarthNet.uav[20] utilizationCountOverdrawnAfterMission 0
scalar OsgEarthNet.uav[20] utilizationCountIdleState 46
scalar OsgEarthNet.uav[20] utilizationFail 0
scalar OsgEarthNet.uav[20] simulationTime 259200
scalar OsgEarthNet.uav[21] utilizationSecMission 27579.838726189
scalar OsgEarthNet.uav[21] utilizationSecMaintenance 20893.905734804
scalar OsgEarthNet.uav[21] utilizationSecCharge 177420.41287386
scalar OsgEarthNet.uav[21] utilizationSecIdle 33305.841665147
scalar OsgEarthNet.uav[21] utilizationEnergyMission 129435.85807037
scalar OsgEarthNet.uav[21] utilizationEnergyMaintenance 95919.920345306
scalar OsgEarthNet.uav[21] utilizationEnergyCharge 224906.93969727
scalar OsgEarthNet.uav[21] utilizationEnergyOverdrawMission 0
scalar OsgEarthNet.uav[21] utilizationEnergyOverdrawMaintenance 0
scalar OsgEarthNet.uav[21] utilizationCountMissions 49
scalar OsgEarthNet.uav[21] utilizationCountManeuversMission 444
scalar OsgEarthNet.uav[21] utilizationCountManeuversMaintenance 98
scalar OsgEarthNet.uav[21] utilizationCountChargeState 49
scalar OsgEarthNet.uav[21] utilizationCountOverdrawnAfterMission 0
scalar OsgEarthNet.uav[21] utilizationCountIdleState 48
scalar OsgEarthNet.uav[21] utilizationFail 0
scalar OsgEarthNet.uav[21] simulationTime 259200
scalar OsgEarthNet.uav[22] utilizationSecMission 27488.81380448
scalar OsgEarthNet.uav[22] utilizationSecMaintenance 19911.094141134
scalar OsgEarthNet.uav[22] utilizationSecCharge 170780.25424035
scalar OsgEarthNet.uav[22] utilizationSecIdle 41019.83681404
scalar OsgEarthNet.uav[22] utilizationEnergyMission 127937.9911232
scalar OsgEarthNet.uav[22] utilizationEnergyMaintenance 91572.34287262
scalar OsgEarthNet.uav[22] utilizationEnergyCharge 215199.17553711
scalar OsgEarthNet.uav[22] utilizationEnergyOverdrawMission 0
scalar OsgEarthNet.uav[22] utilizationEnergyOverdrawMaintenance 0
scalar OsgEarthNet.uav[22] utilizationCountMissions 48
scalar OsgEarthNet.uav[22] utilizationCountManeuversMission 448
scalar OsgEarthNet.uav[22] utilizationCountManeuversMaintenance 96
scalar OsgEarthNet.uav[22] utilizationCountChargeState 48
scalar OsgEarthNet.uav[22] utilizationCountOverdrawnAfterMission 0
scalar OsgEarthNet.uav[22] utilizationCountIdleState 46
scalar OsgEarthNet.uav[22] utilizationFail 0
scalar OsgEarthNet.uav[22] simulationTime 259200
scalar OsgEarthNet.uav[23] utilizationSecMission 26920.732387118
scalar OsgEarthNet.uav[23] utilizationSecMaintenance 20050.421111304
scalar OsgEarthNet.uav[23] utilizationSecCharge 172032.1977419
scalar OsgEarthNet.uav[23] utilizationSecIdle 40196.64775968
scalar OsgEarthNet.uav[23] utilizationEnergyMission 125967.85228729
scalar OsgEarthNet.uav[23] utilizationEnergyMaintenance 92004.460308075
scalar OsgEarthNet.uav[23] utilizationEnergyCharge 217207.3293457
scalar OsgEarthNet.uav[23] utilizationEnergyOverdrawMission 0
scalar OsgEarthNet.uav[23] utilizationEnergyOverdrawMaintenance 0
scalar OsgEarthNet.uav[23] utilizationCountMissions 48
scalar OsgEarthNet.uav[23] utilizationCountManeuversMission 428
scalar OsgEarthNet.uav[23] utilizationCountManeuversMaintenance 96
scalar OsgEarthNet.uav[23] utilizationCountChargeState 48
scalar OsgEarthNet.uav[23] utilizationCountOverdrawnAfterMission 0
scalar OsgEarthNet.uav[23] utilizationCountIdleState 44
scalar OsgEarthNet.uav[23] utilizationFail 0
scalar OsgEarthNet.uav[23] simulationTime 259200
scalar OsgEarthNet.uav[24] utilizationSecMission 28825.533637904
scalar OsgEarthNet.uav[24] utilizationSecMaintenance 20989.25006585
scalar OsgEarthNet.uav[24] utilizationSecCharge 180349.21005635
scalar OsgEarthNet.uav[24] utilizationSecIdle 29036.005239897
scalar OsgEarthNet.uav[24] utilizationEnergyMission 132621.86050415
scalar OsgEarthNet.uav[24] utilizationEnergyMaintenance 97650.531398773
scalar OsgEarthNet.uav[24] utilizationEnergyCharge 226679.3828125
scalar OsgEarthNet.uav[24] utilizationEnergyOverdrawMission 0
scalar OsgEarthNet.uav[24] utilizationEnergyOverdrawMaintenance 0
scalar OsgEarthNet.uav[24] utilizationCountMissions 51
scalar OsgEarthNet.uav[24] utilizationCountManeuversMission 483
scalar OsgEarthNet.uav[24] utilizationCountManeuversMaintenance 102
scalar OsgEarthNet.uav[24] utilizationCountChargeState 51
scalar OsgEarthNet.uav[24] utilizationCountOverdrawnAfterMission 0
scalar OsgEarthNet.uav[24] utilizationCountIdleState 46
scalar OsgEarthNet.uav[24] utilizationFail 0
scalar OsgEarthNet.uav[24] simulationTime 259200
scalar OsgEarthNet.uav[25] utilizationSecMission 28908.668490097
scalar OsgEarthNet.uav[25] utilizationSecMaintenance 20975.334081211
scalar OsgEarthNet.uav[25] utilizationSecCharge 181314.54346997
scalar OsgEarthNet.uav[25] utilizationSecIdle 28001.452958717
scalar OsgEarthNet.uav[25] utilizationEnergyMission 135063.83024597
scalar OsgEarthNet.uav[25] utilizationEnergyMaintenance 97214.840213776
scalar OsgEarthNet.uav[25] utilizationEnergyCharge 230664.22167969
scalar OsgEarthNet.uav[25] utilizationEnergyOverdrawMission 0
scalar OsgEarthNet.uav[25] utilizationEnergyOverdrawMaintenance 0
scalar OsgEarthNet.uav[25] utilizationCountMissions 50
scalar OsgEarthNet.uav[25] utilizationCountManeuversMission 468
scalar OsgEarthNet.uav[25] utilizationCountManeuversMaintenance 100
scalar OsgEarthNet.uav[25] utilizationCountChargeState 50
scalar OsgEarthNet.uav[25] utilizationCountOverdrawnAfterMission 0
scalar OsgEarthNet.uav[25] utilizationCountIdleState 45
scalar OsgEarthNet.uav[25] utilizationFail 0
scalar OsgEarthNet.uav[25] simulationTime 259200
scalar OsgEarthNet.uav[26] utilizationSecMission 29244.7987538
scalar OsgEarthNet.uav[26] utilizationSecMaintenance 20404.876388401
scalar OsgEarthNet.uav[26] utilizationSecCharge 179398.50112105
scalar OsgEarthNet.uav[26] utilizationSecIdle 30151.822736749
scalar OsgEarthNet.uav[26] utilizationEnergyMission 135363.82121277
scalar OsgEarthNet.uav[26] utilizationEnergyMaintenance 94859.996063232
scalar OsgEarthNet.uav[26] utilizationEnergyCharge 226337.41009521
scalar OsgEarthNet.uav[26] utilizationEnergyOverdrawMission 0
scalar OsgEarthNet.uav[26] utilizationEnergyOverdrawMaintenance 0
scalar OsgEarthNet.uav[26] utilizationCountMissions 50
scalar OsgEarthNet.uav[26] utilizationCountManeuversMission 467
scalar OsgEarthNet.uav[26] utilizationCountManeuversMaintenance 100
scalar OsgEarthNet.uav[26] utilizationCountChargeState 50
scalar OsgEarthNet.uav[26] utilizationCountOverdrawnAfterMission 0
scalar OsgEarthNet.uav[26] utilizationCountIdleState 49
scalar OsgEarthNet.uav[26] utilizationFail 0
scalar OsgEarthNet.uav[26] simulationTime 259200
scalar OsgEarthNet.uav[27] utilizationSecMission 26372.229016034
scalar OsgEarthNet.uav[27] utilizationSecMaintenance 18799.570591446
scalar OsgEarthNet.uav[27] utilizationSecCharge 163599.64408488
scalar OsgEarthNet.uav[27] utilizationSecIdle 50428.555307644
scalar OsgEarthNet.uav[27] utilizationEnergyMission 120344.67062378
scalar OsgEarthNet.uav[27] utilizationEnergyMaintenance 87248.446754456
scalar OsgEarthNet.uav[27] utilizationEnergyCharge 206926.71044922
scalar OsgEarthNet.uav[27] utilizationEnergyOverdrawMission 0
scalar OsgEarthNet.uav[27] utilizationEnergyOverdrawMaintenance 0
scalar OsgEarthNet.uav[27] utilizationCountMissions 46
scalar OsgEarthNet.uav[27] utilizationCountManeuversMission 432
scalar OsgEarthNet.uav[27] utilizationCountManeuversMaintenance 92
scalar OsgEarthNet.uav[27] utilizationCountChargeState 46
scalar OsgEarthNet.uav[27] utilizationCountOverdrawnAfterMission 0
scalar OsgEarthNet.uav[27] utilizationCountIdleState 40
scalar OsgEarthNet.uav[27] utilizationFail 0
scalar OsgEarthNet.uav[27] simulationTime 259200
scalar OsgEarthNet.uav[28] utilizationSecMission 28476.818932405
scalar OsgEarthNet.uav[28] utilizationSecMaintenance 19742.042418347
scalar OsgEarthNet.uav[28] utilizationSecCharge 175671.50656858
scalar OsgEarthNet.uav[28] utilizationSecIdle 35309.631080665
scalar OsgEarthNet.uav[28] utilizationEnergyMission 130959.4921875
scalar OsgEarthNet.uav[28] utilizationEnergyMaintenance 91573.527862549
scalar OsgEarthNet.uav[28] utilizationEnergyCharge 222402.76806641
scalar OsgEarthNet.uav[28] utilizationEnergyOverdrawMission 0
scalar OsgEarthNet.uav[28] utilizationEnergyOverdrawMaintenance 0
scalar OsgEarthNet.uav[28] utilizationCountMissions 49
scalar OsgEarthNet.uav[28] utilizationCountManeuversMission 454
scalar OsgEarthNet.uav[28] utilizationCountManeuversMaintenance 98
scalar OsgEarthNet.uav[28] utilizationCountChargeState 49
scalar OsgEarthNet.uav[28] utilizationCountOverdrawnAfterMission 0
scalar OsgEarthNet.uav[28] utilizationCountIdleState 44
scalar OsgEarthNet.uav[28] utilizationFail 0
scalar OsgEarthNet.uav[28] simulationTime 259200
scalar OsgEarthNet.uav[29] utilizationSecMission 29269.176448231
scalar OsgEarthNet.uav[29] utilizationSecMaintenance 19574.092009644
scalar OsgEarthNet.uav[29] utilizationSecCharge 178694.73054212
scalar OsgEarthNet.uav[29] utilizationSecIdle 31662
scalar OsgEarthNet.uav[29] utilizationEnergyMission 134024.12285614
scalar OsgEarthNet.uav[29] utilizationEnergyMaintenance 90426.197036743
scalar OsgEarthNet.uav[29] utilizationEnergyCharge 225399.50439453
scalar OsgEarthNet.uav[29] utilizationEnergyOverdrawMission 0
scalar OsgEarthNet.uav[29] utilizationEnergyOverdrawMaintenance 0
scalar OsgEarthNet.uav[29] utilizationCountMissions 50
scalar OsgEarthNet.uav[29] utilizationCountManeuversMission 479
scalar OsgEarthNet.uav[29] utilizationCountManeuversMaintenance 99
scalar OsgEarthNet.uav[29] utilizationCountChargeState 50
scalar OsgEarthNet.uav[29] utilizationCountOverdrawnAfterMission 0
scalar OsgEarthNet.uav[29] utilizationCountIdleState 44
scalar OsgEarthNet.uav[29] utilizationFail 0
scalar OsgEarthNet.uav[29] simulationTime 259200
scalar OsgEarthNet.uav[30] utilizationSecMission 29594.665387028
scalar OsgEarthNet.uav[30] utilizationSecMaintenance 20320.425470073
scalar OsgEarthNet.uav[30] utilizationSecCharge 180122.71067343
scalar OsgEarthNet.uav[30] utilizationSecIdle 29162.197469467
scalar OsgEarthNet.uav[30] utilizationEnergyMission 136139.72514343
scalar OsgEarthNet.uav[30] utilizationEnergyMaintenance 93549.174964905
scalar OsgEarthNet.uav[30] utilizationEnergyCharge 229216.15429688
scalar OsgEarthNet.uav[30] utilizationEnergyOverdrawMission 0
scalar OsgEarthNet.uav[30] utilizationEnergyOverdrawMaintenance 0
scalar OsgEarthNet.uav[30] utilizationCountMissions 50
scalar OsgEarthNet.uav[30] utilizationCountManeuversMission 477
scalar OsgEarthNet.uav[30] utilizationCountManeuversMaintenance 100
scalar OsgEarthNet.uav[30] utilizationCountChargeState 50
scalar OsgEarthNet.uav[30] utilizationCountOverdrawnAfterMission 0
scalar OsgEarthNet.uav[30] utilizationCountIdleState 41
scalar OsgEarthNet.uav[30] utilizationFail 0
scalar OsgEarthNet.uav[30] simulationTime 259200
scalar OsgEarthNet.uav[31] utilizationSecMission 31094.243549502
scalar OsgEarthNet.uav[31] utilizationSecMaintenance 19832.454731605
scalar OsgEarthNet.uav[31] utilizationSecCharge 186760
scalar OsgEarthNet.uav[31] utilizationSecIdle 21513.300718892
scalar OsgEarthNet.uav[31] utilizationEnergyMission 143528.0227356
scalar OsgEarthNet.uav[31] utilizationEnergyMaintenance 91025.01304245
scalar OsgEarthNet.uav[31] utilizationEnergyCharge 235319.18994141
scalar OsgEarthNet.uav[31] utilizationEnergyOverdrawMission 0
scalar OsgEarthNet.uav[31] utilizationEnergyOverdrawMaintenance 0
scalar OsgEarthNet.uav[31] utilizationCountMissions 52
scalar OsgEarthNet.uav[31] utilizationCountManeuversMission 503
scalar OsgEarthNet.uav[31] utilizationCountManeuversMaintenance 104
scalar OsgEarthNet.uav[31] utilizationCountChargeState 52
scalar OsgEarthNet.uav[31] utilizationCountOverdrawnAfterMission 0
scalar OsgEarthNet.uav[31] utilizationCountIdleState 45
scalar OsgEarthNet.uav[31] utilizationFail 0
scalar OsgEarthNet.uav[31] simulationTime 259200
scalar OsgEarthNet.uav[32] utilizationSecMission 28889.812427835
scalar OsgEarthNet.uav[32] utilizationSecMaintenance 23148.964239893
scalar OsgEarthNet.uav[32] utilizationSecCharge 187884.87211145
scalar OsgEarthNet.uav[32] utilizationSecIdle 19276.350220821
scalar OsgEarthNet.uav[32] utilizationEnergyMission 134731.90842438
scalar OsgEarthNet.uav[32] utilizationEnergyMaintenance 106810.11388779
scalar OsgEarthNet.uav[32] utilizationEnergyCharge 238812.66137695
scalar OsgEarthNet.uav[32] utilizationEnergyOverdrawMission 0
scalar OsgEarthNet.uav[32] utilizationEnergyOverdrawMaintenance 0
scalar OsgEarthNet.uav[32] utilizationCountMissions 53
scalar OsgEarthNet.uav[32] utilizationCountManeuversMission 468
scalar OsgEarthNet.uav[32] utilizationCountManeuversMaintenance 106
scalar OsgEarthNet.uav[32] utilizationCountChargeState 53
scalar OsgEarthNet.uav[32] utilizationCountOverdrawnAfterMission 0
scalar OsgEarthNet.uav[32] utilizationCountIdleState 43
scalar OsgEarthNet.uav[32] utilizationFail 0
scalar OsgEarthNet.uav[32] simulationTime 259200
scalar OsgEarthNet.uav[33] utilizationSecMission 28513.08981245
scalar OsgEarthNet.uav[33] utilizationSecMaintenance 23017.202659256
scalar OsgEarthNet.uav[33] utilizationSecCharge 188796.63674109
scalar OsgEarthNet.uav[33] utilizationSecIdle 18873.069787199
scalar OsgEarthNet.uav[33] utilizationEnergyMission 133924.40323639
scalar OsgEarthNet.uav[33] utilizationEnergyMaintenance 107158.0095787
scalar OsgEarthNet.uav[33] utilizationEnergyCharge 240153.22485352
scalar OsgEarthNet.uav[33] utilizationEnergyOverdrawMission 0
scalar OsgEarthNet.uav[33] utilizationEnergyOverdrawMaintenance 0
scalar OsgEarthNet.uav[33] utilizationCountMissions 52
scalar OsgEarthNet.uav[33] utilizationCountManeuversMission 464
scalar OsgEarthNet.uav[33] utilizationCountManeuversMaintenance 104
scalar OsgEarthNet.uav[33] utilizationCountChargeState 52
scalar OsgEarthNet.uav[33] utilizationCountOverdrawnAfterMission 0
scalar OsgEarthNet.uav[33] utilizationCountIdleState 40
scalar OsgEarthNet.uav[33] utilizationFail 0
scalar OsgEarthNet.uav[33] simulationTime 259200
scalar OsgEarthNet.uav[34] utilizationSecMission 29535.332789096
scalar OsgEarthNet.uav[34] utilizationSecMaintenance 21694.629923307
scalar OsgEarthNet.uav[34] utilizationSecCharge 188470
scalar OsgEarthNet.uav[34] utilizationSecIdle 19500.036287597
scalar OsgEarthNet.uav[34] utilizationEnergyMission 137793.26519394
scalar OsgEarthNet.uav[34] utilizationEnergyMaintenance 100557.52294922
scalar OsgEarthNet.uav[34] utilizationEnergyCharge 238508.23706055
scalar OsgEarthNet.uav[34] utilizationEnergyOverdrawMission 0
scalar OsgEarthNet.uav[34] utilizationEnergyOverdrawMaintenance 0
scalar OsgEarthNet.uav[34] utilizationCountMissions 52
scalar OsgEarthNet.uav[34] utilizationCountManeuversMission 499
scalar OsgEarthNet.uav[34] utilizationCountManeuversMaintenance 104
scalar OsgEarthNet.uav[34] utilizationCountChargeState 52
scalar OsgEarthNet.uav[34] utilizationCountOverdrawnAfterMission 0
scalar OsgEarthNet.uav[34] utilizationCountIdleState 41
scalar OsgEarthNet.uav[34] utilizationFail 0
scalar OsgEarthNet.uav[34] simulationTime 259200
scalar OsgEarthNet.uav[35] utilizationSecMission 30333.866208543
scalar OsgEarthNet.uav[35] utilizationSecMaintenance 21770.509426452
scalar OsgEarthNet.uav[35] utilizationSecCharge 188846.16501692
scalar OsgEarthNet.uav[35] utilizationSecIdle 18249.458348089
scalar OsgEarthNet.uav[35] utilizationEnergyMission 139602.37008667
scalar OsgEarthNet.uav[35] utilizationEnergyMaintenance 100309.50953674
scalar OsgEarthNet.uav[35] utilizationEnergyCharge 239991.30737305
scalar OsgEarthNet.uav[35] utilizationEnergyOverdrawMission 0
scalar OsgEarthNet.uav[35] utilizationEnergyOverdrawMaintenance 0
scalar OsgEarthNet.uav[35] utilizationCountMissions 53
scalar OsgEarthNet.uav[35] utilizationCountManeuversMission 503
scalar OsgEarthNet.uav[35] utilizationCountManeuversMaintenance 106
scalar OsgEarthNet.uav[35] utilizationCountChargeState 53
scalar OsgEarthNet.uav[35] utilizationCountOverdrawnAfterMission 0
scalar OsgEarthNet.uav[35] utilizationCountIdleState 39
scalar OsgEarthNet.uav[35] utilizationFail 0
scalar OsgEarthNet.uav[35] simulationTime 259200
scalar OsgEarthNet.uav[36] utilizationSecMission 29888.030191041
scalar OsgEarthNet.uav[36] utilizationSecMaintenance 22209.968808959
scalar OsgEarthNet.uav[36] utilizationSecCharge 190030
scalar OsgEarthNet.uav[36] utilizationSecIdle 17072
scalar OsgEarthNet.uav[36] utilizationEnergyMission 139161.9300867
scalar OsgEarthNet.uav[36] utilizationEnergyMaintenance 102028.68330765
scalar OsgEarthNet.uav[36] utilizationEnergyCharge 239951.52709961
scalar OsgEarthNet.uav[36] utilizationEnergyOverdrawMission 0
scalar OsgEarthNet.uav[36] utilizationEnergyOverdrawMaintenance 0
scalar OsgEarthNet.uav[36] utilizationCountMissions 53
scalar OsgEarthNet.uav[36] utilizationCountManeuversMission 493
scalar OsgEarthNet.uav[36] utilizationCountManeuversMaintenance 106
scalar OsgEarthNet.uav[36] utilizationCountChargeState 53
scalar OsgEarthNet.uav[36] utilizationCountOverdrawnAfterMission 0
scalar OsgEarthNet.uav[36] utilizationCountIdleState 40
scalar OsgEarthNet.uav[36] utilizationFail 0
scalar OsgEarthNet.uav[36] simulationTime 259200
scalar OsgEarthNet.uav[37] utilizationSecMission 30496.265509713
scalar OsgEarthNet.uav[37] utilizationSecMaintenance 23763.137251885
scalar OsgEarthNet.uav[37] utilizationSecCharge 193088.5962384
scalar OsgEarthNet.uav[37] utilizationSecIdle 11852
scalar OsgEarthNet.uav[37] utilizationEnergyMission 140938.37530518
scalar OsgEarthNet.uav[37] utilizationEnergyMaintenance 109838.20476151
scalar OsgEarthNet.uav[37] utilizationEnergyCharge 246297.71075439
scalar OsgEarthNet.uav[37] utilizationEnergyOverdrawMission 0
scalar OsgEarthNet.uav[37] utilizationEnergyOverdrawMaintenance 0
scalar OsgEarthNet.uav[37] utilizationCountMissions 55
scalar OsgEarthNet.uav[37] utilizationCountManeuversMission 513
scalar OsgEarthNet.uav[37] utilizationCountManeuversMaintenance 109
scalar OsgEarthNet.uav[37] utilizationCountChargeState 55
scalar OsgEarthNet.uav[37] utilizationCountOverdrawnAfterMission 0
scalar OsgEarthNet.uav[37] utilizationCountIdleState 34
scalar OsgEarthNet.uav[37] utilizationFail 0
scalar OsgEarthNet.uav[37] simulationTime 259200
scalar OsgEarthNet.uav[38] utilizationSecMission 30723.396119025
scalar OsgEarthNet.uav[38] utilizationSecMaintenance 23194.841766589
scalar OsgEarthNet.uav[38] utilizationSecCharge 192912.91295239
scalar OsgEarthNet.uav[38] utilizationSecIdle 12368.848161997
scalar OsgEarthNet.uav[38] utilizationEnergyMission 142615.92625809
scalar OsgEarthNet.uav[38] utilizationEnergyMaintenance 105468.87709427
scalar OsgEarthNet.uav[38] utilizationEnergyCharge 245966.91967773
scalar OsgEarthNet.uav[38] utilizationEnergyOverdrawMission 0
scalar OsgEarthNet.uav[38] utilizationEnergyOverdrawMaintenance 0
scalar OsgEarthNet.uav[38] utilizationCountMissions 54
scalar OsgEarthNet.uav[38] utilizationCountManeuversMission 502
scalar OsgEarthNet.uav[38] utilizationCountManeuversMaintenance 108
scalar OsgEarthNet.uav[38] utilizationCountChargeState 54
scalar OsgEarthNet.uav[38] utilizationCountOverdrawnAfterMission 0
scalar OsgEarthNet.uav[38] utilizationCountIdleState 39
scalar OsgEarthNet.uav[38] utilizationFail 0
scalar OsgEarthNet.uav[38] simulationTime 259200
scalar OsgEarthNet.uav[39] utilizationSecMission 32299.774800044
scalar OsgEarthNet.uav[39] utilizationSecMaintenance 20342.026729632
scalar OsgEarthNet.uav[39] utilizationSecCharge 189435.846997
scalar OsgEarthNet.uav[39] utilizationSecIdle 17122.350473324
scalar OsgEarthNet.uav[39] utilizationEnergyMission 149781.91617584
scalar OsgEarthNet.uav[39] utilizationEnergyMaintenance 94267.55884552
scalar OsgEarthNet.uav[39] utilizationEnergyCharge 241299.39477539
scalar OsgEarthNet.uav[39] utilizationEnergyOverdrawMission 0
scalar OsgEarthNet.uav[39] utilizationEnergyOverdrawMaintenance 0
scalar OsgEarthNet.uav[39] utilizationCountMissions 53
scalar OsgEarthNet.uav[39] utilizationCountManeuversMission 520
scalar OsgEarthNet.uav[39] utilizationCountManeuversMaintenance 106
scalar OsgEarthNet.uav[39] utilizationCountChargeState 53
scalar OsgEarthNet.uav[39] utilizationCountOverdrawnAfterMission 0
scalar OsgEarthNet.uav[39] utilizationCountIdleState 40
scalar OsgEarthNet.uav[39] utilizationFail 0
scalar OsgEarthNet.uav[39] simulationTime 259200
scalar OsgEarthNet.uav[40] utilizationSecMission 29758.229018308
scalar OsgEarthNet.uav[40] utilizationSecMaintenance 23076.350833689
scalar OsgEarthNet.uav[40] utilizationSecCharge 190716.81852065
scalar OsgEarthNet.uav[40] utilizationSecIdle 15648.600627356
scalar OsgEarthNet.uav[40] utilizationEnergyMission 137634.34194946
scalar OsgEarthNet.uav[40] utilizationEnergyMaintenance 106520.95783234
scalar OsgEarthNet.uav[40] utilizationEnergyCharge 243175.52661133
scalar OsgEarthNet.uav[40] utilizationEnergyOverdrawMission 0
scalar OsgEarthNet.uav[40] utilizationEnergyOverdrawMaintenance 0
scalar OsgEarthNet.uav[40] utilizationCountMissions 54
scalar OsgEarthNet.uav[40] utilizationCountManeuversMission 481
scalar OsgEarthNet.uav[40] utilizationCountManeuversMaintenance 108
scalar OsgEarthNet.uav[40] utilizationCountChargeState 54
scalar OsgEarthNet.uav[40] utilizationCountOverdrawnAfterMission 0
scalar OsgEarthNet.uav[40] utilizationCountIdleState 34
scalar OsgEarthNet.uav[40] utilizationFail 0
scalar OsgEarthNet.uav[40] simulationTime 259200
scalar OsgEarthNet.uav[41] utilizationSecMission 29501.362832079
scalar OsgEarthNet.uav[41] utilizationSecMaintenance 24723.519691059
scalar OsgEarthNet.uav[41] utilizationSecCharge 194168.43566897
scalar OsgEarthNet.uav[41] utilizationSecIdle 10806.680807888
scalar OsgEarthNet.uav[41] utilizationEnergyMission 134804.73204041
scalar OsgEarthNet.uav[41] utilizationEnergyMaintenance 114757.39477921
scalar OsgEarthNet.uav[41] utilizationEnergyCharge 246484.09741211
scalar OsgEarthNet.uav[41] utilizationEnergyOverdrawMission 0
scalar OsgEarthNet.uav[41] utilizationEnergyOverdrawMaintenance 0
scalar OsgEarthNet.uav[41] utilizationCountMissions 55
scalar OsgEarthNet.uav[41] utilizationCountManeuversMission 486
scalar OsgEarthNet.uav[41] utilizationCountManeuversMaintenance 110
scalar OsgEarthNet.uav[41] utilizationCountChargeState 55
scalar OsgEarthNet.uav[41] utilizationCountOverdrawnAfterMission 0
scalar OsgEarthNet.uav[41] utilizationCountIdleState 37
scalar OsgEarthNet.uav[41] utilizationFail 0
scalar OsgEarthNet.uav[41] simulationTime 259200
scalar OsgEarthNet.uav[42] utilizationSecMission 30869.72463543
scalar OsgEarthNet.uav[42] utilizationSecMaintenance 23870.745256099
scalar OsgEarthNet.uav[42] utilizationSecCharge 194127.52910847
scalar OsgEarthNet.uav[42] utilizationSecIdle 10332
scalar OsgEarthNet.uav[42] utilizationEnergyMission 141636.26908274
scalar OsgEarthNet.uav[42] utilizationEnergyMaintenance 109530.06613541
scalar OsgEarthNet.uav[42] utilizationEnergyCharge 248007.84155273
scalar OsgEarthNet.uav[42] utilizationEnergyOverdrawMission 0
scalar OsgEarthNet.uav[42] utilizationEnergyOverdrawMaintenance 0
scalar OsgEarthNet.uav[42] utilizationCountMissions 55
scalar OsgEarthNet.uav[42] utilizationCountManeuversMission 500
scalar OsgEarthNet.uav[42] utilizationCountManeuversMaintenance 109
scalar OsgEarthNet.uav[42] utilizationCountChargeState 55
scalar OsgEarthNet.uav[42] utilizationCountOverdrawnAfterMission 0
scalar OsgEarthNet.uav[42] utilizationCountIdleState 27
scalar OsgEarthNet.uav[42] utilizationFail 0
scalar OsgEarthNet.uav[42] simulationTime 259200
scalar OsgEarthNet.uav[43] utilizationSecMission 30946.212177931
scalar OsgEarthNet.uav[43] utilizationSecMaintenance 22168.239912812
scalar OsgEarthNet.uav[43] utilizationSecCharge 194070
scalar OsgEarthNet.uav[43] utilizationSecIdle 12015.546909258
scalar OsgEarthNet.uav[43] utilizationEnergyMission 143830.36231232
scalar OsgEarthNet.uav[43] utilizationEnergyMaintenance 102643.96715436
scalar OsgEarthNet.uav[43] utilizationEnergyCharge 246945.6887207
scalar OsgEarthNet.uav[43] utilizationEnergyOverdrawMission 0
scalar OsgEarthNet.uav[43] utilizationEnergyOverdrawMaintenance 0
scalar OsgEarthNet.uav[43] utilizationCountMissions 54
scalar OsgEarthNet.uav[43] utilizationCountManeuversMission 501
scalar OsgEarthNet.uav[43] utilizationCountManeuversMaintenance 109
scalar OsgEarthNet.uav[43] utilizationCountChargeState 54
scalar OsgEarthNet.uav[43] utilizationCountOverdrawnAfterMission 0
scalar OsgEarthNet.uav[43] utilizationCountIdleState 37
scalar OsgEarthNet.uav[43] utilizationFail 0
scalar OsgEarthNet.uav[43] simulationTime 259200
scalar OsgEarthNet.uav[44] utilizationSecMission 30732.092999229
scalar OsgEarthNet.uav[44] utilizationSecMaintenance 23294.892011567
scalar OsgEarthNet.uav[44] utilizationSecCharge 193904.67312952
scalar OsgEarthNet.uav[44] utilizationSecIdle 11268.340859684
scalar OsgEarthNet.uav[44] utilizationEnergyMission 142503.27280426
scalar OsgEarthNet.uav[44] utilizationEnergyMaintenance 108910.41100311
scalar OsgEarthNet.uav[44] utilizationEnergyCharge 247986.78674316
scalar OsgEarthNet.uav[44] utilizationEnergyOverdrawMission 0
scalar OsgEarthNet.uav[44] utilizationEnergyOverdrawMaintenance 0
scalar OsgEarthNet.uav[44] utilizationCountMissions 56
scalar OsgEarthNet.uav[44] utilizationCountManeuversMission 503
scalar OsgEarthNet.uav[44] utilizationCountManeuversMaintenance 112
scalar OsgEarthNet.uav[44] utilizationCountChargeState 56
scalar OsgEarthNet.uav[44] utilizationCountOverdrawnAfterMission 0
scalar OsgEarthNet.uav[44] utilizationCountIdleState 31
scalar OsgEarthNet.uav[44] utilizationFail 0
scalar OsgEarthNet.uav[44] simulationTime 259200
scalar OsgEarthNet.cs[0] usedPower 2219759.0433955
scalar OsgEarthNet.cs[0] chargedPower 2219759.0433955
scalar OsgEarthNet.cs[0] chargedMobileNodes 411
scalar OsgEarthNet.cs[0] reservations 496
scalar OsgEarthNet.cs[1] usedPower 3107119.9077995
scalar OsgEarthNet.cs[1] chargedPower 3107119.9077995
scalar OsgEarthNet.cs[1] chargedMobileNodes 580
scalar OsgEarthNet.cs[1] reservations 675
scalar OsgEarthNet.cs[2] usedPower 4826486.2834962
scalar OsgEarthNet.cs[2] chargedPower 4826486.2834962
scalar OsgEarthNet.cs[2] chargedMobileNodes 934
scalar OsgEarthNet.cs[2] reservations 1072

