version 2
run Szenario_Hotel_Gabelbach-22-20180710-11:30:45-17432
attr configname Szenario_Hotel_Gabelbach
attr datetime 20180710-11:30:45
attr experiment Szenario_Hotel_Gabelbach
attr inifile omnetpp.ini
attr iterationvars "$numUAVs=45, $replM=0"
attr iterationvarsf numUAVs=45,replM=0-
attr measurement "$numUAVs=45, $replM=0"
attr network OsgEarthNet
attr processid 17432
attr repetition 6
attr replication #6
attr resultdir results
attr runnumber 22
attr seedset 22
itervar numUAVs 45
itervar replM 0
param *.osgEarthScene.scene "\"Szenario_Hotel_Gabelbach.earth\""
param *.playgroundLatitude 50.6830269
param *.playgroundLongitude 10.8538055
param *.playgroundWidth 3500m
param *.playgroundHeight 3500m
param *.numCSs 3
param *.cs[0].posX 3537m
param *.cs[0].posY 965m
param *.cs[0].posZ 538m
param *.cs[1].posX 312m
param *.cs[1].posY 1262m
param *.cs[1].posZ 539m
param *.cs[2].posX 2185m
param *.cs[2].posY 3026m
param *.cs[2].posZ 777m
param *.cs[3].posX 10m
param *.cs[3].posY 2200m
param *.cs[3].posZ 560m
param *.cs[4].posX 750m
param *.cs[4].posY 200m
param *.cs[4].posZ 540m
param *.cs[5].posX 2450m
param *.cs[5].posY 180m
param *.cs[5].posZ 524m
param *.cs[6].posX 3140m
param *.cs[6].posY 1790m
param *.cs[6].posZ 606m
param *.numUAVs 45
param *.uav[*].replacementMethod 0
param *.*.timeStep 10s
param *.uav[*].commandPreviewCommandCount 20
param *.missionControl.missionFiles "\"missions\\\\Szenario_WB_Hotel_Gabelbach_Mission_Hotel.waypoints,missions\\\\Szenario_WB_Hotel_Gabelbach_Mission_Kickelhahn.waypoints,missions\\\\Szenario_WB_Hotel_Gabelbach_Mission_Ilmenau_Sportplatz.waypoints,missions\\\\Szenario_WB_Hotel_Gabelbach_Mission_Manebach_Mitte.waypoints,missions\\\\Szenario_WB_Hotel_Gabelbach_Mission_Manebach_Sued.waypoints\""
param *.missionControl.missionFiles "\"missions\\\\Szenario_WB_Hotel_Gabelbach_Mission_Hotel.waypoints,missions\\\\Szenario_WB_Hotel_Gabelbach_Mission_Kickelhahn.waypoints,missions\\\\Szenario_WB_Hotel_Gabelbach_Mission_Ilmenau_Sportplatz.waypoints,missions\\\\Szenario_WB_Hotel_Gabelbach_Mission_Manebach_Mitte.waypoints,missions\\\\Szenario_WB_Hotel_Gabelbach_Mission_Manebach_Sued.waypoints,missions\\\\Szenario_WB_Hotel_Gabelbach_Hover_HoheSchlaufe.waypoints,missions\\\\Szenario_WB_Hotel_Gabelbach_Hover_Kickelhahn.waypoints,missions\\\\Szenario_WB_Hotel_Gabelbach_Hover_Gabelbachskopf.waypoints,missions\\\\Szenario_WB_Hotel_Gabelbach_Hover_Dachskopf.waypoints\""
param *.uav[0].startX 3537m
param *.uav[0].startY 965m
param *.uav[0].startZ 539m
param *.uav[1].startX 312m
param *.uav[1].startY 1262m
param *.uav[1].startZ 540m
param *.uav[2].startX 2185m
param *.uav[2].startY 3026m
param *.uav[2].startZ 778m
param *.uav[3].startX 3537m
param *.uav[3].startY 965m
param *.uav[3].startZ 539m
param *.uav[4].startX 312m
param *.uav[4].startY 1262m
param *.uav[4].startZ 540m
param *.uav[5].startX 2185m
param *.uav[5].startY 3026m
param *.uav[5].startZ 778m
param *.uav[6].startX 3537m
param *.uav[6].startY 965m
param *.uav[6].startZ 539m
param *.uav[7].startX 312m
param *.uav[7].startY 1262m
param *.uav[7].startZ 540m
param *.uav[8].startX 2185m
param *.uav[8].startY 3026m
param *.uav[8].startZ 778m
param *.uav[9].startX 3537m
param *.uav[9].startY 965m
param *.uav[9].startZ 539m
param *.uav[10].startX 3537m
param *.uav[10].startY 965m
param *.uav[10].startZ 539m
param *.uav[11].startX 312m
param *.uav[11].startY 1262m
param *.uav[11].startZ 540m
param *.uav[12].startX 2185m
param *.uav[12].startY 3026m
param *.uav[12].startZ 778m
param *.uav[13].startX 3537m
param *.uav[13].startY 965m
param *.uav[13].startZ 539m
param *.uav[14].startX 312m
param *.uav[14].startY 1262m
param *.uav[14].startZ 540m
param *.uav[15].startX 2185m
param *.uav[15].startY 3026m
param *.uav[15].startZ 778m
param *.uav[16].startX 3537m
param *.uav[16].startY 965m
param *.uav[16].startZ 539m
param *.uav[17].startX 312m
param *.uav[17].startY 1262m
param *.uav[17].startZ 540m
param *.uav[18].startX 2185m
param *.uav[18].startY 3026m
param *.uav[18].startZ 778m
param *.uav[19].startX 3537m
param *.uav[19].startY 965m
param *.uav[19].startZ 539m
param *.uav[20].startX 3537m
param *.uav[20].startY 965m
param *.uav[20].startZ 539m
param *.uav[21].startX 312m
param *.uav[21].startY 1262m
param *.uav[21].startZ 540m
param *.uav[22].startX 2185m
param *.uav[22].startY 3026m
param *.uav[22].startZ 778m
param *.uav[23].startX 3537m
param *.uav[23].startY 965m
param *.uav[23].startZ 539m
param *.uav[24].startX 312m
param *.uav[24].startY 1262m
param *.uav[24].startZ 540m
param *.uav[25].startX 2185m
param *.uav[25].startY 3026m
param *.uav[25].startZ 778m
param *.uav[26].startX 3537m
param *.uav[26].startY 965m
param *.uav[26].startZ 539m
param *.uav[27].startX 312m
param *.uav[27].startY 1262m
param *.uav[27].startZ 540m
param *.uav[28].startX 2185m
param *.uav[28].startY 3026m
param *.uav[28].startZ 778m
param *.uav[29].startX 3537m
param *.uav[29].startY 965m
param *.uav[29].startZ 539m
param *.uav[30].startX 3537m
param *.uav[30].startY 965m
param *.uav[30].startZ 539m
param *.uav[31].startX 312m
param *.uav[31].startY 1262m
param *.uav[31].startZ 540m
param *.uav[32].startX 2185m
param *.uav[32].startY 3026m
param *.uav[32].startZ 778m
param *.uav[33].startX 3537m
param *.uav[33].startY 965m
param *.uav[33].startZ 539m
param *.uav[34].startX 312m
param *.uav[34].startY 1262m
param *.uav[34].startZ 540m
param *.uav[35].startX 2185m
param *.uav[35].startY 3026m
param *.uav[35].startZ 778m
param *.uav[36].startX 3537m
param *.uav[36].startY 965m
param *.uav[36].startZ 539m
param *.uav[37].startX 312m
param *.uav[37].startY 1262m
param *.uav[37].startZ 540m
param *.uav[38].startX 2185m
param *.uav[38].startY 3026m
param *.uav[38].startZ 778m
param *.uav[39].startX 3537m
param *.uav[39].startY 965m
param *.uav[39].startZ 539m
param *.uav[40].startX 3537m
param *.uav[40].startY 965m
param *.uav[40].startZ 539m
param *.uav[41].startX 312m
param *.uav[41].startY 1262m
param *.uav[41].startZ 540m
param *.uav[42].startX 2185m
param *.uav[42].startY 3026m
param *.uav[42].startZ 778m
param *.uav[43].startX 3537m
param *.uav[43].startY 965m
param *.uav[43].startZ 539m
param *.uav[44].startX 312m
param *.uav[44].startY 1262m
param *.uav[44].startZ 540m
param *.uav[45].startX 2185m
param *.uav[45].startY 3026m
param *.uav[45].startZ 778m
param *.uav[46].startX 3537m
param *.uav[46].startY 965m
param *.uav[46].startZ 539m
param *.uav[47].startX 312m
param *.uav[47].startY 1262m
param *.uav[47].startZ 540m
param *.uav[48].startX 2185m
param *.uav[48].startY 3026m
param *.uav[48].startZ 778m
param *.uav[49].startX 3537m
param *.uav[49].startY 965m
param *.uav[49].startZ 539m
param *.uav[50].startX 3537m
param *.uav[50].startY 965m
param *.uav[50].startZ 539m
param *.uav[51].startX 312m
param *.uav[51].startY 1262m
param *.uav[51].startZ 540m
param *.uav[52].startX 2185m
param *.uav[52].startY 3026m
param *.uav[52].startZ 778m
param *.uav[53].startX 3537m
param *.uav[53].startY 965m
param *.uav[53].startZ 539m
param *.uav[54].startX 312m
param *.uav[54].startY 1262m
param *.uav[54].startZ 540m
param *.uav[55].startX 2185m
param *.uav[55].startY 3026m
param *.uav[55].startZ 778m
param *.uav[56].startX 3537m
param *.uav[56].startY 965m
param *.uav[56].startZ 539m
param *.uav[57].startX 312m
param *.uav[57].startY 1262m
param *.uav[57].startZ 540m
param *.uav[58].startX 2185m
param *.uav[58].startY 3026m
param *.uav[58].startZ 778m
param *.uav[59].startX 3537m
param *.uav[59].startY 965m
param *.uav[59].startZ 539m
param *.uav[60].startX 3537m
param *.uav[60].startY 965m
param *.uav[60].startZ 539m
param *.uav[61].startX 312m
param *.uav[61].startY 1262m
param *.uav[61].startZ 540m
param *.uav[62].startX 2185m
param *.uav[62].startY 3026m
param *.uav[62].startZ 778m
param *.uav[63].startX 3537m
param *.uav[63].startY 965m
param *.uav[63].startZ 539m
param *.uav[64].startX 312m
param *.uav[64].startY 1262m
param *.uav[64].startZ 540m
param *.uav[65].startX 2185m
param *.uav[65].startY 3026m
param *.uav[65].startZ 778m
param *.uav[66].startX 3537m
param *.uav[66].startY 965m
param *.uav[66].startZ 539m
param *.uav[67].startX 312m
param *.uav[67].startY 1262m
param *.uav[67].startZ 540m
param *.uav[68].startX 2185m
param *.uav[68].startY 3026m
param *.uav[68].startZ 778m
param *.uav[69].startX 3537m
param *.uav[69].startY 965m
param *.uav[69].startZ 539m
param *.uav[70].startX 3537m
param *.uav[70].startY 965m
param *.uav[70].startZ 539m
param *.uav[71].startX 312m
param *.uav[71].startY 1262m
param *.uav[71].startZ 540m
param *.uav[72].startX 2185m
param *.uav[72].startY 3026m
param *.uav[72].startZ 778m
param *.uav[73].startX 3537m
param *.uav[73].startY 965m
param *.uav[73].startZ 539m
param *.uav[74].startX 312m
param *.uav[74].startY 1262m
param *.uav[74].startZ 540m
param *.uav[75].startX 2185m
param *.uav[75].startY 3026m
param *.uav[75].startZ 778m
param *.uav[76].startX 3537m
param *.uav[76].startY 965m
param *.uav[76].startZ 539m
param *.uav[77].startX 312m
param *.uav[77].startY 1262m
param *.uav[77].startZ 540m
param *.uav[78].startX 2185m
param *.uav[78].startY 3026m
param *.uav[78].startZ 778m
param *.uav[79].startX 3537m
param *.uav[79].startY 965m
param *.uav[79].startZ 539m
param *.uav[80].startX 3537m
param *.uav[80].startY 965m
param *.uav[80].startZ 539m
param *.uav[81].startX 312m
param *.uav[81].startY 1262m
param *.uav[81].startZ 540m
param *.uav[82].startX 2185m
param *.uav[82].startY 3026m
param *.uav[82].startZ 778m
param *.uav[83].startX 3537m
param *.uav[83].startY 965m
param *.uav[83].startZ 539m
param *.uav[84].startX 312m
param *.uav[84].startY 1262m
param *.uav[84].startZ 540m
param *.uav[85].startX 2185m
param *.uav[85].startY 3026m
param *.uav[85].startZ 778m
param *.uav[86].startX 3537m
param *.uav[86].startY 965m
param *.uav[86].startZ 539m
param *.uav[87].startX 312m
param *.uav[87].startY 1262m
param *.uav[87].startZ 540m
param *.uav[88].startX 2185m
param *.uav[88].startY 3026m
param *.uav[88].startZ 778m
param *.uav[89].startX 3537m
param *.uav[89].startY 965m
param *.uav[89].startZ 539m
param *.uav[90].startX 3537m
param *.uav[90].startY 965m
param *.uav[90].startZ 539m
param *.uav[91].startX 312m
param *.uav[91].startY 1262m
param *.uav[91].startZ 540m
param *.uav[92].startX 2185m
param *.uav[92].startY 3026m
param *.uav[92].startZ 778m
param *.uav[93].startX 3537m
param *.uav[93].startY 965m
param *.uav[93].startZ 539m
param *.uav[94].startX 312m
param *.uav[94].startY 1262m
param *.uav[94].startZ 540m
param *.uav[95].startX 2185m
param *.uav[95].startY 3026m
param *.uav[95].startZ 778m
param *.uav[96].startX 3537m
param *.uav[96].startY 965m
param *.uav[96].startZ 539m
param *.uav[97].startX 312m
param *.uav[97].startY 1262m
param *.uav[97].startZ 540m
param *.uav[98].startX 2185m
param *.uav[98].startY 3026m
param *.uav[98].startZ 778m
param *.uav[99].startX 3537m
param *.uav[99].startY 965m
param *.uav[99].startZ 539m
param *.osgEarthScene.scene "\"boston.earth\""
param *.playgroundLatitude 42.3558
param *.playgroundLongitude -71.0677
param *.playgroundWidth 400m
param *.playgroundHeight 200m
param *.channelController.connectionColor "\"#0000FF40\""
param *.channelController.showConnections false
param *.uav[*].modelURL "\"quadrocopter.small.obj.15.scale.0,0,90.rot\""
param *.uav[*].labelColor "\"#FF7C00CC\""
param *.uav[*].label2Color "\"#FF7C00EE\""
param *.uav[*].batteryCapacity 5200mAh
param *.uav[*].batteryRemaining uav[index].batteryCapacity
param *.uav[*].predictionQuantile 0.95
param *.uav[*].replacementMethod 2
param *.uav[*].weightedSumWeight 0.5
param *.cs[*].modelURL "\"chargingstation_v1.osgt.2.scale.0,0,0.rot.0,0,-15e-1.trans\""
param *.cs[*].spotsWaiting 999
param *.cs[*].spotsCharging 999
param *.cs[*].chargeEffectivenessPercentage 100
param *.cs[*].nonLinearPhaseStartPercentage 85
param *.cs[*].chargeCurrent 6.0A
param *.cs[*].prioritizeFastCharge true
param *.missionControl.replacementSearchMethod 0
param *.*.timeStep 9s

scalar OsgEarthNet.uav[0] utilizationSecMission 28051.961204982
scalar OsgEarthNet.uav[0] utilizationSecMaintenance 16655.732817852
scalar OsgEarthNet.uav[0] utilizationSecCharge 162200
scalar OsgEarthNet.uav[0] utilizationSecIdle 52292.304977166
scalar OsgEarthNet.uav[0] utilizationEnergyMission 128836.77703665
scalar OsgEarthNet.uav[0] utilizationEnergyMaintenance 77450.671180725
scalar OsgEarthNet.uav[0] utilizationEnergyCharge 203229.1730957
scalar OsgEarthNet.uav[0] utilizationEnergyOverdrawMission 0
scalar OsgEarthNet.uav[0] utilizationEnergyOverdrawMaintenance 0
scalar OsgEarthNet.uav[0] utilizationCountMissions 45
scalar OsgEarthNet.uav[0] utilizationCountManeuversMission 461
scalar OsgEarthNet.uav[0] utilizationCountManeuversMaintenance 91
scalar OsgEarthNet.uav[0] utilizationCountChargeState 45
scalar OsgEarthNet.uav[0] utilizationCountOverdrawnAfterMission 0
scalar OsgEarthNet.uav[0] utilizationCountIdleState 46
scalar OsgEarthNet.uav[0] utilizationFail 0
scalar OsgEarthNet.uav[0] simulationTime 259200
scalar OsgEarthNet.uav[1] utilizationSecMission 27475.624681718
scalar OsgEarthNet.uav[1] utilizationSecMaintenance 21120.75114547
scalar OsgEarthNet.uav[1] utilizationSecCharge 177907.2903853
scalar OsgEarthNet.uav[1] utilizationSecIdle 32696.332787514
scalar OsgEarthNet.uav[1] utilizationEnergyMission 128103.92423248
scalar OsgEarthNet.uav[1] utilizationEnergyMaintenance 96869.965167999
scalar OsgEarthNet.uav[1] utilizationEnergyCharge 224601.68237305
scalar OsgEarthNet.uav[1] utilizationEnergyOverdrawMission 0
scalar OsgEarthNet.uav[1] utilizationEnergyOverdrawMaintenance 0
scalar OsgEarthNet.uav[1] utilizationCountMissions 49
scalar OsgEarthNet.uav[1] utilizationCountManeuversMission 451
scalar OsgEarthNet.uav[1] utilizationCountManeuversMaintenance 98
scalar OsgEarthNet.uav[1] utilizationCountChargeState 49
scalar OsgEarthNet.uav[1] utilizationCountOverdrawnAfterMission 0
scalar OsgEarthNet.uav[1] utilizationCountIdleState 49
scalar OsgEarthNet.uav[1] utilizationFail 0
scalar OsgEarthNet.uav[1] simulationTime 259200
scalar OsgEarthNet.uav[2] utilizationSecMission 29540.506320764
scalar OsgEarthNet.uav[2] utilizationSecMaintenance 19071.947104982
scalar OsgEarthNet.uav[2] utilizationSecCharge 175387.91449359
scalar OsgEarthNet.uav[2] utilizationSecIdle 35199.631080665
scalar OsgEarthNet.uav[2] utilizationEnergyMission 137395.34889221
scalar OsgEarthNet.uav[2] utilizationEnergyMaintenance 88040.356685638
scalar OsgEarthNet.uav[2] utilizationEnergyCharge 220877.01586914
scalar OsgEarthNet.uav[2] utilizationEnergyOverdrawMission 0
scalar OsgEarthNet.uav[2] utilizationEnergyOverdrawMaintenance 0
scalar OsgEarthNet.uav[2] utilizationCountMissions 49
scalar OsgEarthNet.uav[2] utilizationCountManeuversMission 477
scalar OsgEarthNet.uav[2] utilizationCountManeuversMaintenance 98
scalar OsgEarthNet.uav[2] utilizationCountChargeState 49
scalar OsgEarthNet.uav[2] utilizationCountOverdrawnAfterMission 0
scalar OsgEarthNet.uav[2] utilizationCountIdleState 49
scalar OsgEarthNet.uav[2] utilizationFail 0
scalar OsgEarthNet.uav[2] simulationTime 259200
scalar OsgEarthNet.uav[3] utilizationSecMission 26004.432420857
scalar OsgEarthNet.uav[3] utilizationSecMaintenance 20090.058579621
scalar OsgEarthNet.uav[3] utilizationSecCharge 169106.70868445
scalar OsgEarthNet.uav[3] utilizationSecIdle 43998.799315068
scalar OsgEarthNet.uav[3] utilizationEnergyMission 119977.46054077
scalar OsgEarthNet.uav[3] utilizationEnergyMaintenance 93262.818359375
scalar OsgEarthNet.uav[3] utilizationEnergyCharge 212863.49316406
scalar OsgEarthNet.uav[3] utilizationEnergyOverdrawMission 0
scalar OsgEarthNet.uav[3] utilizationEnergyOverdrawMaintenance 0
scalar OsgEarthNet.uav[3] utilizationCountMissions 47
scalar OsgEarthNet.uav[3] utilizationCountManeuversMission 422
scalar OsgEarthNet.uav[3] utilizationCountManeuversMaintenance 94
scalar OsgEarthNet.uav[3] utilizationCountChargeState 47
scalar OsgEarthNet.uav[3] utilizationCountOverdrawnAfterMission 0
scalar OsgEarthNet.uav[3] utilizationCountIdleState 47
scalar OsgEarthNet.uav[3] utilizationFail 0
scalar OsgEarthNet.uav[3] simulationTime 259200
scalar OsgEarthNet.uav[4] utilizationSecMission 25545.230119772
scalar OsgEarthNet.uav[4] utilizationSecMaintenance 20070.885937442
scalar OsgEarthNet.uav[4] utilizationSecCharge 169690
scalar OsgEarthNet.uav[4] utilizationSecIdle 43893.882942787
scalar OsgEarthNet.uav[4] utilizationEnergyMission 119257.92021942
scalar OsgEarthNet.uav[4] utilizationEnergyMaintenance 93328.581012726
scalar OsgEarthNet.uav[4] utilizationEnergyCharge 212637.58276367
scalar OsgEarthNet.uav[4] utilizationEnergyOverdrawMission 0
scalar OsgEarthNet.uav[4] utilizationEnergyOverdrawMaintenance 112.28043365479
scalar OsgEarthNet.uav[4] utilizationCountMissions 47
scalar OsgEarthNet.uav[4] utilizationCountManeuversMission 421
scalar OsgEarthNet.uav[4] utilizationCountManeuversMaintenance 94
scalar OsgEarthNet.uav[4] utilizationCountChargeState 47
scalar OsgEarthNet.uav[4] utilizationCountOverdrawnAfterMission 1
scalar OsgEarthNet.uav[4] utilizationCountIdleState 47
scalar OsgEarthNet.uav[4] utilizationFail 0
scalar OsgEarthNet.uav[4] simulationTime 259200
scalar OsgEarthNet.uav[5] utilizationSecMission 27210.480428997
scalar OsgEarthNet.uav[5] utilizationSecMaintenance 20868.171579084
scalar OsgEarthNet.uav[5] utilizationSecCharge 174807.82166069
scalar OsgEarthNet.uav[5] utilizationSecIdle 36313.525331232
scalar OsgEarthNet.uav[5] utilizationEnergyMission 126329.81571198
scalar OsgEarthNet.uav[5] utilizationEnergyMaintenance 96179.556499481
scalar OsgEarthNet.uav[5] utilizationEnergyCharge 219867.08886719
scalar OsgEarthNet.uav[5] utilizationEnergyOverdrawMission 0
scalar OsgEarthNet.uav[5] utilizationEnergyOverdrawMaintenance 0
scalar OsgEarthNet.uav[5] utilizationCountMissions 49
scalar OsgEarthNet.uav[5] utilizationCountManeuversMission 456
scalar OsgEarthNet.uav[5] utilizationCountManeuversMaintenance 98
scalar OsgEarthNet.uav[5] utilizationCountChargeState 49
scalar OsgEarthNet.uav[5] utilizationCountOverdrawnAfterMission 0
scalar OsgEarthNet.uav[5] utilizationCountIdleState 49
scalar OsgEarthNet.uav[5] utilizationFail 0
scalar OsgEarthNet.uav[5] simulationTime 259200
scalar OsgEarthNet.uav[6] utilizationSecMission 29837.805221855
scalar OsgEarthNet.uav[6] utilizationSecMaintenance 18840.371034666
scalar OsgEarthNet.uav[6] utilizationSecCharge 175610
scalar OsgEarthNet.uav[6] utilizationSecIdle 34911.82274348
scalar OsgEarthNet.uav[6] utilizationEnergyMission 139207.24621963
scalar OsgEarthNet.uav[6] utilizationEnergyMaintenance 87613.717766464
scalar OsgEarthNet.uav[6] utilizationEnergyCharge 221320.4621582
scalar OsgEarthNet.uav[6] utilizationEnergyOverdrawMission 0
scalar OsgEarthNet.uav[6] utilizationEnergyOverdrawMaintenance 0
scalar OsgEarthNet.uav[6] utilizationCountMissions 49
scalar OsgEarthNet.uav[6] utilizationCountManeuversMission 491
scalar OsgEarthNet.uav[6] utilizationCountManeuversMaintenance 98
scalar OsgEarthNet.uav[6] utilizationCountChargeState 48
scalar OsgEarthNet.uav[6] utilizationCountOverdrawnAfterMission 0
scalar OsgEarthNet.uav[6] utilizationCountIdleState 49
scalar OsgEarthNet.uav[6] utilizationFail 0
scalar OsgEarthNet.uav[6] simulationTime 259200
scalar OsgEarthNet.uav[7] utilizationSecMission 25864.521182888
scalar OsgEarthNet.uav[7] utilizationSecMaintenance 19947.154085541
scalar OsgEarthNet.uav[7] utilizationSecCharge 167263.6205139
scalar OsgEarthNet.uav[7] utilizationSecIdle 46124.703217673
scalar OsgEarthNet.uav[7] utilizationEnergyMission 120312.31799698
scalar OsgEarthNet.uav[7] utilizationEnergyMaintenance 92751.493747711
scalar OsgEarthNet.uav[7] utilizationEnergyCharge 210470.97753906
scalar OsgEarthNet.uav[7] utilizationEnergyOverdrawMission 0
scalar OsgEarthNet.uav[7] utilizationEnergyOverdrawMaintenance 0
scalar OsgEarthNet.uav[7] utilizationCountMissions 47
scalar OsgEarthNet.uav[7] utilizationCountManeuversMission 421
scalar OsgEarthNet.uav[7] utilizationCountManeuversMaintenance 94
scalar OsgEarthNet.uav[7] utilizationCountChargeState 47
scalar OsgEarthNet.uav[7] utilizationCountOverdrawnAfterMission 0
scalar OsgEarthNet.uav[7] utilizationCountIdleState 46
scalar OsgEarthNet.uav[7] utilizationFail 0
scalar OsgEarthNet.uav[7] simulationTime 259200
scalar OsgEarthNet.uav[8] utilizationSecMission 27716.071073281
scalar OsgEarthNet.uav[8] utilizationSecMaintenance 18981.188992825
scalar OsgEarthNet.uav[8] utilizationSecCharge 171370
scalar OsgEarthNet.uav[8] utilizationSecIdle 41132.738933894
scalar OsgEarthNet.uav[8] utilizationEnergyMission 127519.20890808
scalar OsgEarthNet.uav[8] utilizationEnergyMaintenance 88626.052973239
scalar OsgEarthNet.uav[8] utilizationEnergyCharge 215471.14111328
scalar OsgEarthNet.uav[8] utilizationEnergyOverdrawMission 0
scalar OsgEarthNet.uav[8] utilizationEnergyOverdrawMaintenance 0
scalar OsgEarthNet.uav[8] utilizationCountMissions 47
scalar OsgEarthNet.uav[8] utilizationCountManeuversMission 454
scalar OsgEarthNet.uav[8] utilizationCountManeuversMaintenance 95
scalar OsgEarthNet.uav[8] utilizationCountChargeState 47
scalar OsgEarthNet.uav[8] utilizationCountOverdrawnAfterMission 0
scalar OsgEarthNet.uav[8] utilizationCountIdleState 48
scalar OsgEarthNet.uav[8] utilizationFail 0
scalar OsgEarthNet.uav[8] simulationTime 259200
scalar OsgEarthNet.uav[9] utilizationSecMission 27660.389571843
scalar OsgEarthNet.uav[9] utilizationSecMaintenance 19893.584878957
scalar OsgEarthNet.uav[9] utilizationSecCharge 171599.35855634
scalar OsgEarthNet.uav[9] utilizationSecIdle 40046.665992864
scalar OsgEarthNet.uav[9] utilizationEnergyMission 128028.79137421
scalar OsgEarthNet.uav[9] utilizationEnergyMaintenance 91945.364879608
scalar OsgEarthNet.uav[9] utilizationEnergyCharge 216419.30029297
scalar OsgEarthNet.uav[9] utilizationEnergyOverdrawMission 0
scalar OsgEarthNet.uav[9] utilizationEnergyOverdrawMaintenance 0
scalar OsgEarthNet.uav[9] utilizationCountMissions 48
scalar OsgEarthNet.uav[9] utilizationCountManeuversMission 451
scalar OsgEarthNet.uav[9] utilizationCountManeuversMaintenance 96
scalar OsgEarthNet.uav[9] utilizationCountChargeState 48
scalar OsgEarthNet.uav[9] utilizationCountOverdrawnAfterMission 0
scalar OsgEarthNet.uav[9] utilizationCountIdleState 47
scalar OsgEarthNet.uav[9] utilizationFail 0
scalar OsgEarthNet.uav[9] simulationTime 259200
scalar OsgEarthNet.uav[10] utilizationSecMission 26616.05332009
scalar OsgEarthNet.uav[10] utilizationSecMaintenance 19567.168165624
scalar OsgEarthNet.uav[10] utilizationSecCharge 168041.66152355
scalar OsgEarthNet.uav[10] utilizationSecIdle 44975.115990737
scalar OsgEarthNet.uav[10] utilizationEnergyMission 122424.05698395
scalar OsgEarthNet.uav[10] utilizationEnergyMaintenance 90145.378646851
scalar OsgEarthNet.uav[10] utilizationEnergyCharge 211670.33544922
scalar OsgEarthNet.uav[10] utilizationEnergyOverdrawMission 0
scalar OsgEarthNet.uav[10] utilizationEnergyOverdrawMaintenance 0
scalar OsgEarthNet.uav[10] utilizationCountMissions 47
scalar OsgEarthNet.uav[10] utilizationCountManeuversMission 437
scalar OsgEarthNet.uav[10] utilizationCountManeuversMaintenance 94
scalar OsgEarthNet.uav[10] utilizationCountChargeState 47
scalar OsgEarthNet.uav[10] utilizationCountOverdrawnAfterMission 0
scalar OsgEarthNet.uav[10] utilizationCountIdleState 47
scalar OsgEarthNet.uav[10] utilizationFail 0
scalar OsgEarthNet.uav[10] simulationTime 259200
scalar OsgEarthNet.uav[11] utilizationSecMission 29014.423060878
scalar OsgEarthNet.uav[11] utilizationSecMaintenance 19663.245853318
scalar OsgEarthNet.uav[11] utilizationSecCharge 178630
scalar OsgEarthNet.uav[11] utilizationSecIdle 31892.330085804
scalar OsgEarthNet.uav[11] utilizationEnergyMission 134514.03676264
scalar OsgEarthNet.uav[11] utilizationEnergyMaintenance 92167.376121521
scalar OsgEarthNet.uav[11] utilizationEnergyCharge 224841.00390625
scalar OsgEarthNet.uav[11] utilizationEnergyOverdrawMission 0
scalar OsgEarthNet.uav[11] utilizationEnergyOverdrawMaintenance 0
scalar OsgEarthNet.uav[11] utilizationCountMissions 49
scalar OsgEarthNet.uav[11] utilizationCountManeuversMission 473
scalar OsgEarthNet.uav[11] utilizationCountManeuversMaintenance 99
scalar OsgEarthNet.uav[11] utilizationCountChargeState 49
scalar OsgEarthNet.uav[11] utilizationCountOverdrawnAfterMission 0
scalar OsgEarthNet.uav[11] utilizationCountIdleState 50
scalar OsgEarthNet.uav[11] utilizationFail 0
scalar OsgEarthNet.uav[11] simulationTime 259200
scalar OsgEarthNet.uav[12] utilizationSecMission 30654.672998132
scalar OsgEarthNet.uav[12] utilizationSecMaintenance 18066.619291135
scalar OsgEarthNet.uav[12] utilizationSecCharge 178759.53160032
scalar OsgEarthNet.uav[12] utilizationSecIdle 31719.175110411
scalar OsgEarthNet.uav[12] utilizationEnergyMission 142485.21733093
scalar OsgEarthNet.uav[12] utilizationEnergyMaintenance 83932.296916962
scalar OsgEarthNet.uav[12] utilizationEnergyCharge 226067.26757812
scalar OsgEarthNet.uav[12] utilizationEnergyOverdrawMission 0
scalar OsgEarthNet.uav[12] utilizationEnergyOverdrawMaintenance 0
scalar OsgEarthNet.uav[12] utilizationCountMissions 49
scalar OsgEarthNet.uav[12] utilizationCountManeuversMission 493
scalar OsgEarthNet.uav[12] utilizationCountManeuversMaintenance 98
scalar OsgEarthNet.uav[12] utilizationCountChargeState 49
scalar OsgEarthNet.uav[12] utilizationCountOverdrawnAfterMission 0
scalar OsgEarthNet.uav[12] utilizationCountIdleState 49
scalar OsgEarthNet.uav[12] utilizationFail 0
scalar OsgEarthNet.uav[12] simulationTime 259200
scalar OsgEarthNet.uav[13] utilizationSecMission 30734.448402297
scalar OsgEarthNet.uav[13] utilizationSecMaintenance 18551.62149028
scalar OsgEarthNet.uav[13] utilizationSecCharge 180811.92910742
scalar OsgEarthNet.uav[13] utilizationSecIdle 29102
scalar OsgEarthNet.uav[13] utilizationEnergyMission 142924.00146484
scalar OsgEarthNet.uav[13] utilizationEnergyMaintenance 86559.327735901
scalar OsgEarthNet.uav[13] utilizationEnergyCharge 228850.69262695
scalar OsgEarthNet.uav[13] utilizationEnergyOverdrawMission 0
scalar OsgEarthNet.uav[13] utilizationEnergyOverdrawMaintenance 0
scalar OsgEarthNet.uav[13] utilizationCountMissions 50
scalar OsgEarthNet.uav[13] utilizationCountManeuversMission 486
scalar OsgEarthNet.uav[13] utilizationCountManeuversMaintenance 99
scalar OsgEarthNet.uav[13] utilizationCountChargeState 50
scalar OsgEarthNet.uav[13] utilizationCountOverdrawnAfterMission 0
scalar OsgEarthNet.uav[13] utilizationCountIdleState 49
scalar OsgEarthNet.uav[13] utilizationFail 0
scalar OsgEarthNet.uav[13] simulationTime 259200
scalar OsgEarthNet.uav[14] utilizationSecMission 24937.674222077
scalar OsgEarthNet.uav[14] utilizationSecMaintenance 19265.009670734
scalar OsgEarthNet.uav[14] utilizationSecCharge 160300
scalar OsgEarthNet.uav[14] utilizationSecIdle 54697.315107189
scalar OsgEarthNet.uav[14] utilizationEnergyMission 114641.66157493
scalar OsgEarthNet.uav[14] utilizationEnergyMaintenance 90543.731533051
scalar OsgEarthNet.uav[14] utilizationEnergyCharge 201753.39648438
scalar OsgEarthNet.uav[14] utilizationEnergyOverdrawMission 0
scalar OsgEarthNet.uav[14] utilizationEnergyOverdrawMaintenance 0
scalar OsgEarthNet.uav[14] utilizationCountMissions 44
scalar OsgEarthNet.uav[14] utilizationCountManeuversMission 411
scalar OsgEarthNet.uav[14] utilizationCountManeuversMaintenance 89
scalar OsgEarthNet.uav[14] utilizationCountChargeState 44
scalar OsgEarthNet.uav[14] utilizationCountOverdrawnAfterMission 0
scalar OsgEarthNet.uav[14] utilizationCountIdleState 44
scalar OsgEarthNet.uav[14] utilizationFail 0
scalar OsgEarthNet.uav[14] simulationTime 259200
scalar OsgEarthNet.uav[15] utilizationSecMission 28034.59668876
scalar OsgEarthNet.uav[15] utilizationSecMaintenance 18307.288111123
scalar OsgEarthNet.uav[15] utilizationSecCharge 166941.7639793
scalar OsgEarthNet.uav[15] utilizationSecIdle 45916.350220821
scalar OsgEarthNet.uav[15] utilizationEnergyMission 128800.62892151
scalar OsgEarthNet.uav[15] utilizationEnergyMaintenance 84063.429660797
scalar OsgEarthNet.uav[15] utilizationEnergyCharge 210110.71069336
scalar OsgEarthNet.uav[15] utilizationEnergyOverdrawMission 0
scalar OsgEarthNet.uav[15] utilizationEnergyOverdrawMaintenance 0
scalar OsgEarthNet.uav[15] utilizationCountMissions 47
scalar OsgEarthNet.uav[15] utilizationCountManeuversMission 457
scalar OsgEarthNet.uav[15] utilizationCountManeuversMaintenance 94
scalar OsgEarthNet.uav[15] utilizationCountChargeState 47
scalar OsgEarthNet.uav[15] utilizationCountOverdrawnAfterMission 0
scalar OsgEarthNet.uav[15] utilizationCountIdleState 45
scalar OsgEarthNet.uav[15] utilizationFail 0
scalar OsgEarthNet.uav[15] simulationTime 259200
scalar OsgEarthNet.uav[16] utilizationSecMission 27418.530933397
scalar OsgEarthNet.uav[16] utilizationSecMaintenance 20283.483413261
scalar OsgEarthNet.uav[16] utilizationSecCharge 174632.58991434
scalar OsgEarthNet.uav[16] utilizationSecIdle 36865.394739004
scalar OsgEarthNet.uav[16] utilizationEnergyMission 125619.66984177
scalar OsgEarthNet.uav[16] utilizationEnergyMaintenance 95248.336051941
scalar OsgEarthNet.uav[16] utilizationEnergyCharge 219436.90795898
scalar OsgEarthNet.uav[16] utilizationEnergyOverdrawMission 0
scalar OsgEarthNet.uav[16] utilizationEnergyOverdrawMaintenance 0
scalar OsgEarthNet.uav[16] utilizationCountMissions 49
scalar OsgEarthNet.uav[16] utilizationCountManeuversMission 460
scalar OsgEarthNet.uav[16] utilizationCountManeuversMaintenance 98
scalar OsgEarthNet.uav[16] utilizationCountChargeState 49
scalar OsgEarthNet.uav[16] utilizationCountOverdrawnAfterMission 0
scalar OsgEarthNet.uav[16] utilizationCountIdleState 49
scalar OsgEarthNet.uav[16] utilizationFail 0
scalar OsgEarthNet.uav[16] simulationTime 259200
scalar OsgEarthNet.uav[17] utilizationSecMission 24233.81071903
scalar OsgEarthNet.uav[17] utilizationSecMaintenance 15352.843949221
scalar OsgEarthNet.uav[17] utilizationSecCharge 144400
scalar OsgEarthNet.uav[17] utilizationSecIdle 75213.344331749
scalar OsgEarthNet.uav[17] utilizationEnergyMission 111735.33218384
scalar OsgEarthNet.uav[17] utilizationEnergyMaintenance 70744.774917603
scalar OsgEarthNet.uav[17] utilizationEnergyCharge 182364.421875
scalar OsgEarthNet.uav[17] utilizationEnergyOverdrawMission 0
scalar OsgEarthNet.uav[17] utilizationEnergyOverdrawMaintenance 0
scalar OsgEarthNet.uav[17] utilizationCountMissions 40
scalar OsgEarthNet.uav[17] utilizationCountManeuversMission 393
scalar OsgEarthNet.uav[17] utilizationCountManeuversMaintenance 80
scalar OsgEarthNet.uav[17] utilizationCountChargeState 40
scalar OsgEarthNet.uav[17] utilizationCountOverdrawnAfterMission 0
scalar OsgEarthNet.uav[17] utilizationCountIdleState 37
scalar OsgEarthNet.uav[17] utilizationFail 0
scalar OsgEarthNet.uav[17] simulationTime 259200
scalar OsgEarthNet.uav[18] utilizationSecMission 30470.673204306
scalar OsgEarthNet.uav[18] utilizationSecMaintenance 17449.488981654
scalar OsgEarthNet.uav[18] utilizationSecCharge 174800
scalar OsgEarthNet.uav[18] utilizationSecIdle 36479.83681404
scalar OsgEarthNet.uav[18] utilizationEnergyMission 141210.14242181
scalar OsgEarthNet.uav[18] utilizationEnergyMaintenance 81601.255714417
scalar OsgEarthNet.uav[18] utilizationEnergyCharge 220243.85986328
scalar OsgEarthNet.uav[18] utilizationEnergyOverdrawMission 0
scalar OsgEarthNet.uav[18] utilizationEnergyOverdrawMaintenance 0
scalar OsgEarthNet.uav[18] utilizationCountMissions 48
scalar OsgEarthNet.uav[18] utilizationCountManeuversMission 495
scalar OsgEarthNet.uav[18] utilizationCountManeuversMaintenance 97
scalar OsgEarthNet.uav[18] utilizationCountChargeState 48
scalar OsgEarthNet.uav[18] utilizationCountOverdrawnAfterMission 0
scalar OsgEarthNet.uav[18] utilizationCountIdleState 47
scalar OsgEarthNet.uav[18] utilizationFail 0
scalar OsgEarthNet.uav[18] simulationTime 259200
scalar OsgEarthNet.uav[19] utilizationSecMission 27450.119228456
scalar OsgEarthNet.uav[19] utilizationSecMaintenance 20089.127145638
scalar OsgEarthNet.uav[19] utilizationSecCharge 173924.73101471
scalar OsgEarthNet.uav[19] utilizationSecIdle 37736.021611199
scalar OsgEarthNet.uav[19] utilizationEnergyMission 127018.42061615
scalar OsgEarthNet.uav[19] utilizationEnergyMaintenance 93387.064434051
scalar OsgEarthNet.uav[19] utilizationEnergyCharge 219922.96582031
scalar OsgEarthNet.uav[19] utilizationEnergyOverdrawMission 0
scalar OsgEarthNet.uav[19] utilizationEnergyOverdrawMaintenance 0
scalar OsgEarthNet.uav[19] utilizationCountMissions 48
scalar OsgEarthNet.uav[19] utilizationCountManeuversMission 458
scalar OsgEarthNet.uav[19] utilizationCountManeuversMaintenance 96
scalar OsgEarthNet.uav[19] utilizationCountChargeState 48
scalar OsgEarthNet.uav[19] utilizationCountOverdrawnAfterMission 0
scalar OsgEarthNet.uav[19] utilizationCountIdleState 46
scalar OsgEarthNet.uav[19] utilizationFail 0
scalar OsgEarthNet.uav[19] simulationTime 259200
scalar OsgEarthNet.uav[20] utilizationSecMission 26038.037521742
scalar OsgEarthNet.uav[20] utilizationSecMaintenance 20915.892826596
scalar OsgEarthNet.uav[20] utilizationSecCharge 170505.49821861
scalar OsgEarthNet.uav[20] utilizationSecIdle 41740.570433056
scalar OsgEarthNet.uav[20] utilizationEnergyMission 121164.54681396
scalar OsgEarthNet.uav[20] utilizationEnergyMaintenance 97453.406841278
scalar OsgEarthNet.uav[20] utilizationEnergyCharge 214405.21868896
scalar OsgEarthNet.uav[20] utilizationEnergyOverdrawMission 0
scalar OsgEarthNet.uav[20] utilizationEnergyOverdrawMaintenance 0
scalar OsgEarthNet.uav[20] utilizationCountMissions 48
scalar OsgEarthNet.uav[20] utilizationCountManeuversMission 425
scalar OsgEarthNet.uav[20] utilizationCountManeuversMaintenance 96
scalar OsgEarthNet.uav[20] utilizationCountChargeState 48
scalar OsgEarthNet.uav[20] utilizationCountOverdrawnAfterMission 0
scalar OsgEarthNet.uav[20] utilizationCountIdleState 45
scalar OsgEarthNet.uav[20] utilizationFail 0
scalar OsgEarthNet.uav[20] simulationTime 259200
scalar OsgEarthNet.uav[21] utilizationSecMission 25438.80887965
scalar OsgEarthNet.uav[21] utilizationSecMaintenance 18632.075508995
scalar OsgEarthNet.uav[21] utilizationSecCharge 162200
scalar OsgEarthNet.uav[21] utilizationSecIdle 52929.114611355
scalar OsgEarthNet.uav[21] utilizationEnergyMission 117993.70023346
scalar OsgEarthNet.uav[21] utilizationEnergyMaintenance 86786.339305878
scalar OsgEarthNet.uav[21] utilizationEnergyCharge 204567.98828125
scalar OsgEarthNet.uav[21] utilizationEnergyOverdrawMission 0
scalar OsgEarthNet.uav[21] utilizationEnergyOverdrawMaintenance 61.369869232178
scalar OsgEarthNet.uav[21] utilizationCountMissions 45
scalar OsgEarthNet.uav[21] utilizationCountManeuversMission 407
scalar OsgEarthNet.uav[21] utilizationCountManeuversMaintenance 90
scalar OsgEarthNet.uav[21] utilizationCountChargeState 45
scalar OsgEarthNet.uav[21] utilizationCountOverdrawnAfterMission 1
scalar OsgEarthNet.uav[21] utilizationCountIdleState 41
scalar OsgEarthNet.uav[21] utilizationFail 0
scalar OsgEarthNet.uav[21] simulationTime 259200
scalar OsgEarthNet.uav[22] utilizationSecMission 30098.918940442
scalar OsgEarthNet.uav[22] utilizationSecMaintenance 16752.201674016
scalar OsgEarthNet.uav[22] utilizationSecCharge 169926.87838554
scalar OsgEarthNet.uav[22] utilizationSecIdle 42422
scalar OsgEarthNet.uav[22] utilizationEnergyMission 137968.96108735
scalar OsgEarthNet.uav[22] utilizationEnergyMaintenance 77066.988510132
scalar OsgEarthNet.uav[22] utilizationEnergyCharge 214592.27026367
scalar OsgEarthNet.uav[22] utilizationEnergyOverdrawMission 0
scalar OsgEarthNet.uav[22] utilizationEnergyOverdrawMaintenance 0
scalar OsgEarthNet.uav[22] utilizationCountMissions 47
scalar OsgEarthNet.uav[22] utilizationCountManeuversMission 485
scalar OsgEarthNet.uav[22] utilizationCountManeuversMaintenance 93
scalar OsgEarthNet.uav[22] utilizationCountChargeState 47
scalar OsgEarthNet.uav[22] utilizationCountOverdrawnAfterMission 0
scalar OsgEarthNet.uav[22] utilizationCountIdleState 46
scalar OsgEarthNet.uav[22] utilizationFail 0
scalar OsgEarthNet.uav[22] simulationTime 259200
scalar OsgEarthNet.uav[23] utilizationSecMission 28627.3736378
scalar OsgEarthNet.uav[23] utilizationSecMaintenance 19969.278932563
scalar OsgEarthNet.uav[23] utilizationSecCharge 180760
scalar OsgEarthNet.uav[23] utilizationSecIdle 29843.346429637
scalar OsgEarthNet.uav[23] utilizationEnergyMission 133139.86883545
scalar OsgEarthNet.uav[23] utilizationEnergyMaintenance 93637.405525208
scalar OsgEarthNet.uav[23] utilizationEnergyCharge 226779.87402344
scalar OsgEarthNet.uav[23] utilizationEnergyOverdrawMission 0
scalar OsgEarthNet.uav[23] utilizationEnergyOverdrawMaintenance 0
scalar OsgEarthNet.uav[23] utilizationCountMissions 50
scalar OsgEarthNet.uav[23] utilizationCountManeuversMission 474
scalar OsgEarthNet.uav[23] utilizationCountManeuversMaintenance 100
scalar OsgEarthNet.uav[23] utilizationCountChargeState 50
scalar OsgEarthNet.uav[23] utilizationCountOverdrawnAfterMission 0
scalar OsgEarthNet.uav[23] utilizationCountIdleState 51
scalar OsgEarthNet.uav[23] utilizationFail 0
scalar OsgEarthNet.uav[23] simulationTime 259200
scalar OsgEarthNet.uav[24] utilizationSecMission 23805.395932349
scalar OsgEarthNet.uav[24] utilizationSecMaintenance 22293.685312042
scalar OsgEarthNet.uav[24] utilizationSecCharge 165714.45641238
scalar OsgEarthNet.uav[24] utilizationSecIdle 47386.461343226
scalar OsgEarthNet.uav[24] utilizationEnergyMission 109681.85627747
scalar OsgEarthNet.uav[24] utilizationEnergyMaintenance 103088.93021393
scalar OsgEarthNet.uav[24] utilizationEnergyCharge 208823.22039795
scalar OsgEarthNet.uav[24] utilizationEnergyOverdrawMission 0
scalar OsgEarthNet.uav[24] utilizationEnergyOverdrawMaintenance 0
scalar OsgEarthNet.uav[24] utilizationCountMissions 47
scalar OsgEarthNet.uav[24] utilizationCountManeuversMission 391
scalar OsgEarthNet.uav[24] utilizationCountManeuversMaintenance 94
scalar OsgEarthNet.uav[24] utilizationCountChargeState 47
scalar OsgEarthNet.uav[24] utilizationCountOverdrawnAfterMission 0
scalar OsgEarthNet.uav[24] utilizationCountIdleState 42
scalar OsgEarthNet.uav[24] utilizationFail 0
scalar OsgEarthNet.uav[24] simulationTime 259200
scalar OsgEarthNet.uav[25] utilizationSecMission 26824.724939596
scalar OsgEarthNet.uav[25] utilizationSecMaintenance 18987.915128512
scalar OsgEarthNet.uav[25] utilizationSecCharge 164148.13931798
scalar OsgEarthNet.uav[25] utilizationSecIdle 49239.219613916
scalar OsgEarthNet.uav[25] utilizationEnergyMission 123880.88682556
scalar OsgEarthNet.uav[25] utilizationEnergyMaintenance 87773.026420593
scalar OsgEarthNet.uav[25] utilizationEnergyCharge 208415.96447754
scalar OsgEarthNet.uav[25] utilizationEnergyOverdrawMission 0
scalar OsgEarthNet.uav[25] utilizationEnergyOverdrawMaintenance 0
scalar OsgEarthNet.uav[25] utilizationCountMissions 46
scalar OsgEarthNet.uav[25] utilizationCountManeuversMission 440
scalar OsgEarthNet.uav[25] utilizationCountManeuversMaintenance 92
scalar OsgEarthNet.uav[25] utilizationCountChargeState 46
scalar OsgEarthNet.uav[25] utilizationCountOverdrawnAfterMission 0
scalar OsgEarthNet.uav[25] utilizationCountIdleState 39
scalar OsgEarthNet.uav[25] utilizationFail 0
scalar OsgEarthNet.uav[25] simulationTime 259200
scalar OsgEarthNet.uav[26] utilizationSecMission 28157.06404339
scalar OsgEarthNet.uav[26] utilizationSecMaintenance 20572.246630224
scalar OsgEarthNet.uav[26] utilizationSecCharge 176764.17104608
scalar OsgEarthNet.uav[26] utilizationSecIdle 33706.517280303
scalar OsgEarthNet.uav[26] utilizationEnergyMission 131670.80558014
scalar OsgEarthNet.uav[26] utilizationEnergyMaintenance 96066.520786285
scalar OsgEarthNet.uav[26] utilizationEnergyCharge 222654.52458191
scalar OsgEarthNet.uav[26] utilizationEnergyOverdrawMission 0
scalar OsgEarthNet.uav[26] utilizationEnergyOverdrawMaintenance 0
scalar OsgEarthNet.uav[26] utilizationCountMissions 50
scalar OsgEarthNet.uav[26] utilizationCountManeuversMission 455
scalar OsgEarthNet.uav[26] utilizationCountManeuversMaintenance 100
scalar OsgEarthNet.uav[26] utilizationCountChargeState 50
scalar OsgEarthNet.uav[26] utilizationCountOverdrawnAfterMission 0
scalar OsgEarthNet.uav[26] utilizationCountIdleState 45
scalar OsgEarthNet.uav[26] utilizationFail 0
scalar OsgEarthNet.uav[26] simulationTime 259200
scalar OsgEarthNet.uav[27] utilizationSecMission 30615.041916987
scalar OsgEarthNet.uav[27] utilizationSecMaintenance 19981.210482721
scalar OsgEarthNet.uav[27] utilizationSecCharge 183345.29032311
scalar OsgEarthNet.uav[27] utilizationSecIdle 25258.456277181
scalar OsgEarthNet.uav[27] utilizationEnergyMission 141992.26776123
scalar OsgEarthNet.uav[27] utilizationEnergyMaintenance 93008.802646637
scalar OsgEarthNet.uav[27] utilizationEnergyCharge 231528.03131104
scalar OsgEarthNet.uav[27] utilizationEnergyOverdrawMission 0
scalar OsgEarthNet.uav[27] utilizationEnergyOverdrawMaintenance 0
scalar OsgEarthNet.uav[27] utilizationCountMissions 51
scalar OsgEarthNet.uav[27] utilizationCountManeuversMission 494
scalar OsgEarthNet.uav[27] utilizationCountManeuversMaintenance 102
scalar OsgEarthNet.uav[27] utilizationCountChargeState 51
scalar OsgEarthNet.uav[27] utilizationCountOverdrawnAfterMission 0
scalar OsgEarthNet.uav[27] utilizationCountIdleState 48
scalar OsgEarthNet.uav[27] utilizationFail 0
scalar OsgEarthNet.uav[27] simulationTime 259200
scalar OsgEarthNet.uav[28] utilizationSecMission 28988.999161285
scalar OsgEarthNet.uav[28] utilizationSecMaintenance 20349.222547784
scalar OsgEarthNet.uav[28] utilizationSecCharge 177278.83262386
scalar OsgEarthNet.uav[28] utilizationSecIdle 32582.944667072
scalar OsgEarthNet.uav[28] utilizationEnergyMission 132771.55951691
scalar OsgEarthNet.uav[28] utilizationEnergyMaintenance 94934.613273621
scalar OsgEarthNet.uav[28] utilizationEnergyCharge 224877.01037598
scalar OsgEarthNet.uav[28] utilizationEnergyOverdrawMission 0
scalar OsgEarthNet.uav[28] utilizationEnergyOverdrawMaintenance 0
scalar OsgEarthNet.uav[28] utilizationCountMissions 50
scalar OsgEarthNet.uav[28] utilizationCountManeuversMission 460
scalar OsgEarthNet.uav[28] utilizationCountManeuversMaintenance 100
scalar OsgEarthNet.uav[28] utilizationCountChargeState 50
scalar OsgEarthNet.uav[28] utilizationCountOverdrawnAfterMission 0
scalar OsgEarthNet.uav[28] utilizationCountIdleState 40
scalar OsgEarthNet.uav[28] utilizationFail 0
scalar OsgEarthNet.uav[28] simulationTime 259200
scalar OsgEarthNet.uav[29] utilizationSecMission 29238.184884881
scalar OsgEarthNet.uav[29] utilizationSecMaintenance 20193.467650719
scalar OsgEarthNet.uav[29] utilizationSecCharge 178899.43467389
scalar OsgEarthNet.uav[29] utilizationSecIdle 30868.911790506
scalar OsgEarthNet.uav[29] utilizationEnergyMission 135169.66566467
scalar OsgEarthNet.uav[29] utilizationEnergyMaintenance 92811.673408508
scalar OsgEarthNet.uav[29] utilizationEnergyCharge 226581.99804688
scalar OsgEarthNet.uav[29] utilizationEnergyOverdrawMission 0
scalar OsgEarthNet.uav[29] utilizationEnergyOverdrawMaintenance 0
scalar OsgEarthNet.uav[29] utilizationCountMissions 50
scalar OsgEarthNet.uav[29] utilizationCountManeuversMission 475
scalar OsgEarthNet.uav[29] utilizationCountManeuversMaintenance 100
scalar OsgEarthNet.uav[29] utilizationCountChargeState 50
scalar OsgEarthNet.uav[29] utilizationCountOverdrawnAfterMission 0
scalar OsgEarthNet.uav[29] utilizationCountIdleState 45
scalar OsgEarthNet.uav[29] utilizationFail 0
scalar OsgEarthNet.uav[29] simulationTime 259200
scalar OsgEarthNet.uav[30] utilizationSecMission 29769.984192297
scalar OsgEarthNet.uav[30] utilizationSecMaintenance 21362.042264819
scalar OsgEarthNet.uav[30] utilizationSecCharge 186510
scalar OsgEarthNet.uav[30] utilizationSecIdle 21557.972542884
scalar OsgEarthNet.uav[30] utilizationEnergyMission 137705.44776154
scalar OsgEarthNet.uav[30] utilizationEnergyMaintenance 99051.851634979
scalar OsgEarthNet.uav[30] utilizationEnergyCharge 236190.29736328
scalar OsgEarthNet.uav[30] utilizationEnergyOverdrawMission 0
scalar OsgEarthNet.uav[30] utilizationEnergyOverdrawMaintenance 0
scalar OsgEarthNet.uav[30] utilizationCountMissions 51
scalar OsgEarthNet.uav[30] utilizationCountManeuversMission 488
scalar OsgEarthNet.uav[30] utilizationCountManeuversMaintenance 102
scalar OsgEarthNet.uav[30] utilizationCountChargeState 51
scalar OsgEarthNet.uav[30] utilizationCountOverdrawnAfterMission 0
scalar OsgEarthNet.uav[30] utilizationCountIdleState 44
scalar OsgEarthNet.uav[30] utilizationFail 0
scalar OsgEarthNet.uav[30] simulationTime 259200
scalar OsgEarthNet.uav[31] utilizationSecMission 30609.719436324
scalar OsgEarthNet.uav[31] utilizationSecMaintenance 19832.892952983
scalar OsgEarthNet.uav[31] utilizationSecCharge 185260
scalar OsgEarthNet.uav[31] utilizationSecIdle 23497.386610693
scalar OsgEarthNet.uav[31] utilizationEnergyMission 143116.85006714
scalar OsgEarthNet.uav[31] utilizationEnergyMaintenance 91738.375904083
scalar OsgEarthNet.uav[31] utilizationEnergyCharge 234003.796875
scalar OsgEarthNet.uav[31] utilizationEnergyOverdrawMission 0
scalar OsgEarthNet.uav[31] utilizationEnergyOverdrawMaintenance 0
scalar OsgEarthNet.uav[31] utilizationCountMissions 51
scalar OsgEarthNet.uav[31] utilizationCountManeuversMission 498
scalar OsgEarthNet.uav[31] utilizationCountManeuversMaintenance 101
scalar OsgEarthNet.uav[31] utilizationCountChargeState 51
scalar OsgEarthNet.uav[31] utilizationCountOverdrawnAfterMission 0
scalar OsgEarthNet.uav[31] utilizationCountIdleState 47
scalar OsgEarthNet.uav[31] utilizationFail 0
scalar OsgEarthNet.uav[31] simulationTime 259200
scalar OsgEarthNet.uav[32] utilizationSecMission 28536.300802955
scalar OsgEarthNet.uav[32] utilizationSecMaintenance 21649.620724459
scalar OsgEarthNet.uav[32] utilizationSecCharge 182010.87908977
scalar OsgEarthNet.uav[32] utilizationSecIdle 27003.198382819
scalar OsgEarthNet.uav[32] utilizationEnergyMission 131101.16385651
scalar OsgEarthNet.uav[32] utilizationEnergyMaintenance 99739.439998627
scalar OsgEarthNet.uav[32] utilizationEnergyCharge 229414.33935547
scalar OsgEarthNet.uav[32] utilizationEnergyOverdrawMission 0
scalar OsgEarthNet.uav[32] utilizationEnergyOverdrawMaintenance 0
scalar OsgEarthNet.uav[32] utilizationCountMissions 51
scalar OsgEarthNet.uav[32] utilizationCountManeuversMission 459
scalar OsgEarthNet.uav[32] utilizationCountManeuversMaintenance 102
scalar OsgEarthNet.uav[32] utilizationCountChargeState 51
scalar OsgEarthNet.uav[32] utilizationCountOverdrawnAfterMission 0
scalar OsgEarthNet.uav[32] utilizationCountIdleState 46
scalar OsgEarthNet.uav[32] utilizationFail 0
scalar OsgEarthNet.uav[32] simulationTime 259200
scalar OsgEarthNet.uav[33] utilizationSecMission 28884.757262207
scalar OsgEarthNet.uav[33] utilizationSecMaintenance 22074.646480896
scalar OsgEarthNet.uav[33] utilizationSecCharge 185050
scalar OsgEarthNet.uav[33] utilizationSecIdle 23190.595256897
scalar OsgEarthNet.uav[33] utilizationEnergyMission 134618.65640985
scalar OsgEarthNet.uav[33] utilizationEnergyMaintenance 101714.13950729
scalar OsgEarthNet.uav[33] utilizationEnergyCharge 233791.56835938
scalar OsgEarthNet.uav[33] utilizationEnergyOverdrawMission 0
scalar OsgEarthNet.uav[33] utilizationEnergyOverdrawMaintenance 0
scalar OsgEarthNet.uav[33] utilizationCountMissions 51
scalar OsgEarthNet.uav[33] utilizationCountManeuversMission 480
scalar OsgEarthNet.uav[33] utilizationCountManeuversMaintenance 103
scalar OsgEarthNet.uav[33] utilizationCountChargeState 51
scalar OsgEarthNet.uav[33] utilizationCountOverdrawnAfterMission 0
scalar OsgEarthNet.uav[33] utilizationCountIdleState 41
scalar OsgEarthNet.uav[33] utilizationFail 0
scalar OsgEarthNet.uav[33] simulationTime 259200
scalar OsgEarthNet.uav[34] utilizationSecMission 28266.658071071
scalar OsgEarthNet.uav[34] utilizationSecMaintenance 22235.056324706
scalar OsgEarthNet.uav[34] utilizationSecCharge 183479.75794215
scalar OsgEarthNet.uav[34] utilizationSecIdle 25218.526662077
scalar OsgEarthNet.uav[34] utilizationEnergyMission 131108.56286621
scalar OsgEarthNet.uav[34] utilizationEnergyMaintenance 102246.93302536
scalar OsgEarthNet.uav[34] utilizationEnergyCharge 231471.58374023
scalar OsgEarthNet.uav[34] utilizationEnergyOverdrawMission 0
scalar OsgEarthNet.uav[34] utilizationEnergyOverdrawMaintenance 0
scalar OsgEarthNet.uav[34] utilizationCountMissions 52
scalar OsgEarthNet.uav[34] utilizationCountManeuversMission 457
scalar OsgEarthNet.uav[34] utilizationCountManeuversMaintenance 104
scalar OsgEarthNet.uav[34] utilizationCountChargeState 52
scalar OsgEarthNet.uav[34] utilizationCountOverdrawnAfterMission 0
scalar OsgEarthNet.uav[34] utilizationCountIdleState 44
scalar OsgEarthNet.uav[34] utilizationFail 0
scalar OsgEarthNet.uav[34] simulationTime 259200
scalar OsgEarthNet.uav[35] utilizationSecMission 31858.37114939
scalar OsgEarthNet.uav[35] utilizationSecMaintenance 20480.927408967
scalar OsgEarthNet.uav[35] utilizationSecCharge 188150
scalar OsgEarthNet.uav[35] utilizationSecIdle 18710.700441643
scalar OsgEarthNet.uav[35] utilizationEnergyMission 148677.73592377
scalar OsgEarthNet.uav[35] utilizationEnergyMaintenance 95327.456923609
scalar OsgEarthNet.uav[35] utilizationEnergyCharge 239569.66015625
scalar OsgEarthNet.uav[35] utilizationEnergyOverdrawMission 0
scalar OsgEarthNet.uav[35] utilizationEnergyOverdrawMaintenance 0
scalar OsgEarthNet.uav[35] utilizationCountMissions 53
scalar OsgEarthNet.uav[35] utilizationCountManeuversMission 516
scalar OsgEarthNet.uav[35] utilizationCountManeuversMaintenance 106
scalar OsgEarthNet.uav[35] utilizationCountChargeState 52
scalar OsgEarthNet.uav[35] utilizationCountOverdrawnAfterMission 0
scalar OsgEarthNet.uav[35] utilizationCountIdleState 40
scalar OsgEarthNet.uav[35] utilizationFail 0
scalar OsgEarthNet.uav[35] simulationTime 259200
scalar OsgEarthNet.uav[36] utilizationSecMission 29994.061991024
scalar OsgEarthNet.uav[36] utilizationSecMaintenance 22560.900641567
scalar OsgEarthNet.uav[36] utilizationSecCharge 189483.03636741
scalar OsgEarthNet.uav[36] utilizationSecIdle 17162
scalar OsgEarthNet.uav[36] utilizationEnergyMission 138834.3635788
scalar OsgEarthNet.uav[36] utilizationEnergyMaintenance 102476.4834137
scalar OsgEarthNet.uav[36] utilizationEnergyCharge 240686.17285156
scalar OsgEarthNet.uav[36] utilizationEnergyOverdrawMission 0
scalar OsgEarthNet.uav[36] utilizationEnergyOverdrawMaintenance 63.739700317383
scalar OsgEarthNet.uav[36] utilizationCountMissions 53
scalar OsgEarthNet.uav[36] utilizationCountManeuversMission 496
scalar OsgEarthNet.uav[36] utilizationCountManeuversMaintenance 105
scalar OsgEarthNet.uav[36] utilizationCountChargeState 53
scalar OsgEarthNet.uav[36] utilizationCountOverdrawnAfterMission 1
scalar OsgEarthNet.uav[36] utilizationCountIdleState 41
scalar OsgEarthNet.uav[36] utilizationFail 0
scalar OsgEarthNet.uav[36] simulationTime 259200
scalar OsgEarthNet.uav[37] utilizationSecMission 30590.961972852
scalar OsgEarthNet.uav[37] utilizationSecMaintenance 21666.880005434
scalar OsgEarthNet.uav[37] utilizationSecCharge 188477.5451322
scalar OsgEarthNet.uav[37] utilizationSecIdle 18464.611889516
scalar OsgEarthNet.uav[37] utilizationEnergyMission 140778.76665497
scalar OsgEarthNet.uav[37] utilizationEnergyMaintenance 99101.70091629
scalar OsgEarthNet.uav[37] utilizationEnergyCharge 238860.79101562
scalar OsgEarthNet.uav[37] utilizationEnergyOverdrawMission 0
scalar OsgEarthNet.uav[37] utilizationEnergyOverdrawMaintenance 0
scalar OsgEarthNet.uav[37] utilizationCountMissions 53
scalar OsgEarthNet.uav[37] utilizationCountManeuversMission 510
scalar OsgEarthNet.uav[37] utilizationCountManeuversMaintenance 106
scalar OsgEarthNet.uav[37] utilizationCountChargeState 53
scalar OsgEarthNet.uav[37] utilizationCountOverdrawnAfterMission 0
scalar OsgEarthNet.uav[37] utilizationCountIdleState 37
scalar OsgEarthNet.uav[37] utilizationFail 0
scalar OsgEarthNet.uav[37] simulationTime 259200
scalar OsgEarthNet.uav[38] utilizationSecMission 29018.66571462
scalar OsgEarthNet.uav[38] utilizationSecMaintenance 23694.714985652
scalar OsgEarthNet.uav[38] utilizationSecCharge 191127.19295244
scalar OsgEarthNet.uav[38] utilizationSecIdle 15359.42534729
scalar OsgEarthNet.uav[38] utilizationEnergyMission 132513.62582397
scalar OsgEarthNet.uav[38] utilizationEnergyMaintenance 109379.56732559
scalar OsgEarthNet.uav[38] utilizationEnergyCharge 242075.71191406
scalar OsgEarthNet.uav[38] utilizationEnergyOverdrawMission 0
scalar OsgEarthNet.uav[38] utilizationEnergyOverdrawMaintenance 0
scalar OsgEarthNet.uav[38] utilizationCountMissions 53
scalar OsgEarthNet.uav[38] utilizationCountManeuversMission 463
scalar OsgEarthNet.uav[38] utilizationCountManeuversMaintenance 106
scalar OsgEarthNet.uav[38] utilizationCountChargeState 53
scalar OsgEarthNet.uav[38] utilizationCountOverdrawnAfterMission 0
scalar OsgEarthNet.uav[38] utilizationCountIdleState 39
scalar OsgEarthNet.uav[38] utilizationFail 0
scalar OsgEarthNet.uav[38] simulationTime 259200
scalar OsgEarthNet.uav[39] utilizationSecMission 31557.883083217
scalar OsgEarthNet.uav[39] utilizationSecMaintenance 19144.629878592
scalar OsgEarthNet.uav[39] utilizationSecCharge 185845.0371395
scalar OsgEarthNet.uav[39] utilizationSecIdle 22652.448898691
scalar OsgEarthNet.uav[39] utilizationEnergyMission 145167.34964752
scalar OsgEarthNet.uav[39] utilizationEnergyMaintenance 88561.138504028
scalar OsgEarthNet.uav[39] utilizationEnergyCharge 233621.42016602
scalar OsgEarthNet.uav[39] utilizationEnergyOverdrawMission 0
scalar OsgEarthNet.uav[39] utilizationEnergyOverdrawMaintenance 0
scalar OsgEarthNet.uav[39] utilizationCountMissions 52
scalar OsgEarthNet.uav[39] utilizationCountManeuversMission 524
scalar OsgEarthNet.uav[39] utilizationCountManeuversMaintenance 104
scalar OsgEarthNet.uav[39] utilizationCountChargeState 52
scalar OsgEarthNet.uav[39] utilizationCountOverdrawnAfterMission 0
scalar OsgEarthNet.uav[39] utilizationCountIdleState 44
scalar OsgEarthNet.uav[39] utilizationFail 0
scalar OsgEarthNet.uav[39] simulationTime 259200
scalar OsgEarthNet.uav[40] utilizationSecMission 28432.603430682
scalar OsgEarthNet.uav[40] utilizationSecMaintenance 24531.722185499
scalar OsgEarthNet.uav[40] utilizationSecCharge 193233.78861
scalar OsgEarthNet.uav[40] utilizationSecIdle 13001.884773823
scalar OsgEarthNet.uav[40] utilizationEnergyMission 131205.57154083
scalar OsgEarthNet.uav[40] utilizationEnergyMaintenance 114836.07342529
scalar OsgEarthNet.uav[40] utilizationEnergyCharge 245646.15283203
scalar OsgEarthNet.uav[40] utilizationEnergyOverdrawMission 0
scalar OsgEarthNet.uav[40] utilizationEnergyOverdrawMaintenance 0
scalar OsgEarthNet.uav[40] utilizationCountMissions 54
scalar OsgEarthNet.uav[40] utilizationCountManeuversMission 461
scalar OsgEarthNet.uav[40] utilizationCountManeuversMaintenance 108
scalar OsgEarthNet.uav[40] utilizationCountChargeState 54
scalar OsgEarthNet.uav[40] utilizationCountOverdrawnAfterMission 0
scalar OsgEarthNet.uav[40] utilizationCountIdleState 38
scalar OsgEarthNet.uav[40] utilizationFail 0
scalar OsgEarthNet.uav[40] simulationTime 259200
scalar OsgEarthNet.uav[41] utilizationSecMission 31293.365026821
scalar OsgEarthNet.uav[41] utilizationSecMaintenance 22028.068546288
scalar OsgEarthNet.uav[41] utilizationSecCharge 192748.547123
scalar OsgEarthNet.uav[41] utilizationSecIdle 13130.018303888
scalar OsgEarthNet.uav[41] utilizationEnergyMission 145740.84011078
scalar OsgEarthNet.uav[41] utilizationEnergyMaintenance 102040.81613541
scalar OsgEarthNet.uav[41] utilizationEnergyCharge 247516.28222656
scalar OsgEarthNet.uav[41] utilizationEnergyOverdrawMission 0
scalar OsgEarthNet.uav[41] utilizationEnergyOverdrawMaintenance 0
scalar OsgEarthNet.uav[41] utilizationCountMissions 54
scalar OsgEarthNet.uav[41] utilizationCountManeuversMission 520
scalar OsgEarthNet.uav[41] utilizationCountManeuversMaintenance 108
scalar OsgEarthNet.uav[41] utilizationCountChargeState 54
scalar OsgEarthNet.uav[41] utilizationCountOverdrawnAfterMission 0
scalar OsgEarthNet.uav[41] utilizationCountIdleState 35
scalar OsgEarthNet.uav[41] utilizationFail 0
scalar OsgEarthNet.uav[41] simulationTime 259200
scalar OsgEarthNet.uav[42] utilizationSecMission 29875.162376804
scalar OsgEarthNet.uav[42] utilizationSecMaintenance 22655.257489172
scalar OsgEarthNet.uav[42] utilizationSecCharge 192680
scalar OsgEarthNet.uav[42] utilizationSecIdle 13989.579134024
scalar OsgEarthNet.uav[42] utilizationEnergyMission 137452.72904205
scalar OsgEarthNet.uav[42] utilizationEnergyMaintenance 105813.78949738
scalar OsgEarthNet.uav[42] utilizationEnergyCharge 243685.75097656
scalar OsgEarthNet.uav[42] utilizationEnergyOverdrawMission 0
scalar OsgEarthNet.uav[42] utilizationEnergyOverdrawMaintenance 0
scalar OsgEarthNet.uav[42] utilizationCountMissions 54
scalar OsgEarthNet.uav[42] utilizationCountManeuversMission 482
scalar OsgEarthNet.uav[42] utilizationCountManeuversMaintenance 107
scalar OsgEarthNet.uav[42] utilizationCountChargeState 54
scalar OsgEarthNet.uav[42] utilizationCountOverdrawnAfterMission 0
scalar OsgEarthNet.uav[42] utilizationCountIdleState 40
scalar OsgEarthNet.uav[42] utilizationFail 0
scalar OsgEarthNet.uav[42] simulationTime 259200
scalar OsgEarthNet.uav[43] utilizationSecMission 31987.650802995
scalar OsgEarthNet.uav[43] utilizationSecMaintenance 22354.723607752
scalar OsgEarthNet.uav[43] utilizationSecCharge 194863.62965583
scalar OsgEarthNet.uav[43] utilizationSecIdle 9993.9949334209
scalar OsgEarthNet.uav[43] utilizationEnergyMission 148217.19703674
scalar OsgEarthNet.uav[43] utilizationEnergyMaintenance 102942.72039032
scalar OsgEarthNet.uav[43] utilizationEnergyCharge 248811.98339844
scalar OsgEarthNet.uav[43] utilizationEnergyOverdrawMission 0
scalar OsgEarthNet.uav[43] utilizationEnergyOverdrawMaintenance 0
scalar OsgEarthNet.uav[43] utilizationCountMissions 55
scalar OsgEarthNet.uav[43] utilizationCountManeuversMission 522
scalar OsgEarthNet.uav[43] utilizationCountManeuversMaintenance 110
scalar OsgEarthNet.uav[43] utilizationCountChargeState 55
scalar OsgEarthNet.uav[43] utilizationCountOverdrawnAfterMission 0
scalar OsgEarthNet.uav[43] utilizationCountIdleState 34
scalar OsgEarthNet.uav[43] utilizationFail 0
scalar OsgEarthNet.uav[43] simulationTime 259200
scalar OsgEarthNet.uav[44] utilizationSecMission 29981.943420867
scalar OsgEarthNet.uav[44] utilizationSecMaintenance 24198.353090885
scalar OsgEarthNet.uav[44] utilizationSecCharge 195308.64666331
scalar OsgEarthNet.uav[44] utilizationSecIdle 9711.0558249362
scalar OsgEarthNet.uav[44] utilizationEnergyMission 139439.57535553
scalar OsgEarthNet.uav[44] utilizationEnergyMaintenance 112314.09225464
scalar OsgEarthNet.uav[44] utilizationEnergyCharge 250326.93041992
scalar OsgEarthNet.uav[44] utilizationEnergyOverdrawMission 0
scalar OsgEarthNet.uav[44] utilizationEnergyOverdrawMaintenance 0
scalar OsgEarthNet.uav[44] utilizationCountMissions 55
scalar OsgEarthNet.uav[44] utilizationCountManeuversMission 508
scalar OsgEarthNet.uav[44] utilizationCountManeuversMaintenance 110
scalar OsgEarthNet.uav[44] utilizationCountChargeState 55
scalar OsgEarthNet.uav[44] utilizationCountOverdrawnAfterMission 0
scalar OsgEarthNet.uav[44] utilizationCountIdleState 32
scalar OsgEarthNet.uav[44] utilizationFail 0
scalar OsgEarthNet.uav[44] simulationTime 259200
scalar OsgEarthNet.cs[0] usedPower 2169264.0010265
scalar OsgEarthNet.cs[0] chargedPower 2169264.0010265
scalar OsgEarthNet.cs[0] chargedMobileNodes 430
scalar OsgEarthNet.cs[0] reservations 484
scalar OsgEarthNet.cs[1] usedPower 3042141.9774981
scalar OsgEarthNet.cs[1] chargedPower 3042141.9774981
scalar OsgEarthNet.cs[1] chargedMobileNodes 569
scalar OsgEarthNet.cs[1] reservations 662
scalar OsgEarthNet.cs[2] usedPower 4871232.4362751
scalar OsgEarthNet.cs[2] chargedPower 4871232.4362751
scalar OsgEarthNet.cs[2] chargedMobileNodes 945
scalar OsgEarthNet.cs[2] reservations 1078

