version 2
run Szenario_Hotel_Gabelbach-81-20180710-03:50:02-3908
attr configname Szenario_Hotel_Gabelbach
attr datetime 20180710-03:50:02
attr experiment Szenario_Hotel_Gabelbach
attr inifile omnetpp.ini
attr iterationvars "$numUAVs=70, $replM=0"
attr iterationvarsf numUAVs=70,replM=0-
attr measurement "$numUAVs=70, $replM=0"
attr network OsgEarthNet
attr processid 3908
attr repetition 1
attr replication #1
attr resultdir results
attr runnumber 81
attr seedset 81
itervar numUAVs 70
itervar replM 0
param *.osgEarthScene.scene "\"Szenario_Hotel_Gabelbach.earth\""
param *.playgroundLatitude 50.6830269
param *.playgroundLongitude 10.8538055
param *.playgroundWidth 3500m
param *.playgroundHeight 3500m
param *.numCSs 3
param *.cs[0].posX 3537m
param *.cs[0].posY 965m
param *.cs[0].posZ 538m
param *.cs[1].posX 312m
param *.cs[1].posY 1262m
param *.cs[1].posZ 539m
param *.cs[2].posX 2185m
param *.cs[2].posY 3026m
param *.cs[2].posZ 777m
param *.cs[3].posX 10m
param *.cs[3].posY 2200m
param *.cs[3].posZ 560m
param *.cs[4].posX 750m
param *.cs[4].posY 200m
param *.cs[4].posZ 540m
param *.cs[5].posX 2450m
param *.cs[5].posY 180m
param *.cs[5].posZ 524m
param *.cs[6].posX 3140m
param *.cs[6].posY 1790m
param *.cs[6].posZ 606m
param *.numUAVs 70
param *.uav[*].replacementMethod 0
param *.*.timeStep 10s
param *.uav[*].commandPreviewCommandCount 20
param *.missionControl.missionFiles "\"missions\\\\Szenario_WB_Hotel_Gabelbach_Mission_Hotel.waypoints,missions\\\\Szenario_WB_Hotel_Gabelbach_Mission_Kickelhahn.waypoints,missions\\\\Szenario_WB_Hotel_Gabelbach_Mission_Ilmenau_Sportplatz.waypoints,missions\\\\Szenario_WB_Hotel_Gabelbach_Mission_Manebach_Mitte.waypoints,missions\\\\Szenario_WB_Hotel_Gabelbach_Mission_Manebach_Sued.waypoints\""
param *.missionControl.missionFiles "\"missions\\\\Szenario_WB_Hotel_Gabelbach_Mission_Hotel.waypoints,missions\\\\Szenario_WB_Hotel_Gabelbach_Mission_Kickelhahn.waypoints,missions\\\\Szenario_WB_Hotel_Gabelbach_Mission_Ilmenau_Sportplatz.waypoints,missions\\\\Szenario_WB_Hotel_Gabelbach_Mission_Manebach_Mitte.waypoints,missions\\\\Szenario_WB_Hotel_Gabelbach_Mission_Manebach_Sued.waypoints,missions\\\\Szenario_WB_Hotel_Gabelbach_Hover_HoheSchlaufe.waypoints,missions\\\\Szenario_WB_Hotel_Gabelbach_Hover_Kickelhahn.waypoints,missions\\\\Szenario_WB_Hotel_Gabelbach_Hover_Gabelbachskopf.waypoints,missions\\\\Szenario_WB_Hotel_Gabelbach_Hover_Dachskopf.waypoints\""
param *.uav[0].startX 3537m
param *.uav[0].startY 965m
param *.uav[0].startZ 539m
param *.uav[1].startX 312m
param *.uav[1].startY 1262m
param *.uav[1].startZ 540m
param *.uav[2].startX 2185m
param *.uav[2].startY 3026m
param *.uav[2].startZ 778m
param *.uav[3].startX 3537m
param *.uav[3].startY 965m
param *.uav[3].startZ 539m
param *.uav[4].startX 312m
param *.uav[4].startY 1262m
param *.uav[4].startZ 540m
param *.uav[5].startX 2185m
param *.uav[5].startY 3026m
param *.uav[5].startZ 778m
param *.uav[6].startX 3537m
param *.uav[6].startY 965m
param *.uav[6].startZ 539m
param *.uav[7].startX 312m
param *.uav[7].startY 1262m
param *.uav[7].startZ 540m
param *.uav[8].startX 2185m
param *.uav[8].startY 3026m
param *.uav[8].startZ 778m
param *.uav[9].startX 3537m
param *.uav[9].startY 965m
param *.uav[9].startZ 539m
param *.uav[10].startX 3537m
param *.uav[10].startY 965m
param *.uav[10].startZ 539m
param *.uav[11].startX 312m
param *.uav[11].startY 1262m
param *.uav[11].startZ 540m
param *.uav[12].startX 2185m
param *.uav[12].startY 3026m
param *.uav[12].startZ 778m
param *.uav[13].startX 3537m
param *.uav[13].startY 965m
param *.uav[13].startZ 539m
param *.uav[14].startX 312m
param *.uav[14].startY 1262m
param *.uav[14].startZ 540m
param *.uav[15].startX 2185m
param *.uav[15].startY 3026m
param *.uav[15].startZ 778m
param *.uav[16].startX 3537m
param *.uav[16].startY 965m
param *.uav[16].startZ 539m
param *.uav[17].startX 312m
param *.uav[17].startY 1262m
param *.uav[17].startZ 540m
param *.uav[18].startX 2185m
param *.uav[18].startY 3026m
param *.uav[18].startZ 778m
param *.uav[19].startX 3537m
param *.uav[19].startY 965m
param *.uav[19].startZ 539m
param *.uav[20].startX 3537m
param *.uav[20].startY 965m
param *.uav[20].startZ 539m
param *.uav[21].startX 312m
param *.uav[21].startY 1262m
param *.uav[21].startZ 540m
param *.uav[22].startX 2185m
param *.uav[22].startY 3026m
param *.uav[22].startZ 778m
param *.uav[23].startX 3537m
param *.uav[23].startY 965m
param *.uav[23].startZ 539m
param *.uav[24].startX 312m
param *.uav[24].startY 1262m
param *.uav[24].startZ 540m
param *.uav[25].startX 2185m
param *.uav[25].startY 3026m
param *.uav[25].startZ 778m
param *.uav[26].startX 3537m
param *.uav[26].startY 965m
param *.uav[26].startZ 539m
param *.uav[27].startX 312m
param *.uav[27].startY 1262m
param *.uav[27].startZ 540m
param *.uav[28].startX 2185m
param *.uav[28].startY 3026m
param *.uav[28].startZ 778m
param *.uav[29].startX 3537m
param *.uav[29].startY 965m
param *.uav[29].startZ 539m
param *.uav[30].startX 3537m
param *.uav[30].startY 965m
param *.uav[30].startZ 539m
param *.uav[31].startX 312m
param *.uav[31].startY 1262m
param *.uav[31].startZ 540m
param *.uav[32].startX 2185m
param *.uav[32].startY 3026m
param *.uav[32].startZ 778m
param *.uav[33].startX 3537m
param *.uav[33].startY 965m
param *.uav[33].startZ 539m
param *.uav[34].startX 312m
param *.uav[34].startY 1262m
param *.uav[34].startZ 540m
param *.uav[35].startX 2185m
param *.uav[35].startY 3026m
param *.uav[35].startZ 778m
param *.uav[36].startX 3537m
param *.uav[36].startY 965m
param *.uav[36].startZ 539m
param *.uav[37].startX 312m
param *.uav[37].startY 1262m
param *.uav[37].startZ 540m
param *.uav[38].startX 2185m
param *.uav[38].startY 3026m
param *.uav[38].startZ 778m
param *.uav[39].startX 3537m
param *.uav[39].startY 965m
param *.uav[39].startZ 539m
param *.uav[40].startX 3537m
param *.uav[40].startY 965m
param *.uav[40].startZ 539m
param *.uav[41].startX 312m
param *.uav[41].startY 1262m
param *.uav[41].startZ 540m
param *.uav[42].startX 2185m
param *.uav[42].startY 3026m
param *.uav[42].startZ 778m
param *.uav[43].startX 3537m
param *.uav[43].startY 965m
param *.uav[43].startZ 539m
param *.uav[44].startX 312m
param *.uav[44].startY 1262m
param *.uav[44].startZ 540m
param *.uav[45].startX 2185m
param *.uav[45].startY 3026m
param *.uav[45].startZ 778m
param *.uav[46].startX 3537m
param *.uav[46].startY 965m
param *.uav[46].startZ 539m
param *.uav[47].startX 312m
param *.uav[47].startY 1262m
param *.uav[47].startZ 540m
param *.uav[48].startX 2185m
param *.uav[48].startY 3026m
param *.uav[48].startZ 778m
param *.uav[49].startX 3537m
param *.uav[49].startY 965m
param *.uav[49].startZ 539m
param *.uav[50].startX 3537m
param *.uav[50].startY 965m
param *.uav[50].startZ 539m
param *.uav[51].startX 312m
param *.uav[51].startY 1262m
param *.uav[51].startZ 540m
param *.uav[52].startX 2185m
param *.uav[52].startY 3026m
param *.uav[52].startZ 778m
param *.uav[53].startX 3537m
param *.uav[53].startY 965m
param *.uav[53].startZ 539m
param *.uav[54].startX 312m
param *.uav[54].startY 1262m
param *.uav[54].startZ 540m
param *.uav[55].startX 2185m
param *.uav[55].startY 3026m
param *.uav[55].startZ 778m
param *.uav[56].startX 3537m
param *.uav[56].startY 965m
param *.uav[56].startZ 539m
param *.uav[57].startX 312m
param *.uav[57].startY 1262m
param *.uav[57].startZ 540m
param *.uav[58].startX 2185m
param *.uav[58].startY 3026m
param *.uav[58].startZ 778m
param *.uav[59].startX 3537m
param *.uav[59].startY 965m
param *.uav[59].startZ 539m
param *.uav[60].startX 3537m
param *.uav[60].startY 965m
param *.uav[60].startZ 539m
param *.uav[61].startX 312m
param *.uav[61].startY 1262m
param *.uav[61].startZ 540m
param *.uav[62].startX 2185m
param *.uav[62].startY 3026m
param *.uav[62].startZ 778m
param *.uav[63].startX 3537m
param *.uav[63].startY 965m
param *.uav[63].startZ 539m
param *.uav[64].startX 312m
param *.uav[64].startY 1262m
param *.uav[64].startZ 540m
param *.uav[65].startX 2185m
param *.uav[65].startY 3026m
param *.uav[65].startZ 778m
param *.uav[66].startX 3537m
param *.uav[66].startY 965m
param *.uav[66].startZ 539m
param *.uav[67].startX 312m
param *.uav[67].startY 1262m
param *.uav[67].startZ 540m
param *.uav[68].startX 2185m
param *.uav[68].startY 3026m
param *.uav[68].startZ 778m
param *.uav[69].startX 3537m
param *.uav[69].startY 965m
param *.uav[69].startZ 539m
param *.uav[70].startX 3537m
param *.uav[70].startY 965m
param *.uav[70].startZ 539m
param *.uav[71].startX 312m
param *.uav[71].startY 1262m
param *.uav[71].startZ 540m
param *.uav[72].startX 2185m
param *.uav[72].startY 3026m
param *.uav[72].startZ 778m
param *.uav[73].startX 3537m
param *.uav[73].startY 965m
param *.uav[73].startZ 539m
param *.uav[74].startX 312m
param *.uav[74].startY 1262m
param *.uav[74].startZ 540m
param *.uav[75].startX 2185m
param *.uav[75].startY 3026m
param *.uav[75].startZ 778m
param *.uav[76].startX 3537m
param *.uav[76].startY 965m
param *.uav[76].startZ 539m
param *.uav[77].startX 312m
param *.uav[77].startY 1262m
param *.uav[77].startZ 540m
param *.uav[78].startX 2185m
param *.uav[78].startY 3026m
param *.uav[78].startZ 778m
param *.uav[79].startX 3537m
param *.uav[79].startY 965m
param *.uav[79].startZ 539m
param *.uav[80].startX 3537m
param *.uav[80].startY 965m
param *.uav[80].startZ 539m
param *.uav[81].startX 312m
param *.uav[81].startY 1262m
param *.uav[81].startZ 540m
param *.uav[82].startX 2185m
param *.uav[82].startY 3026m
param *.uav[82].startZ 778m
param *.uav[83].startX 3537m
param *.uav[83].startY 965m
param *.uav[83].startZ 539m
param *.uav[84].startX 312m
param *.uav[84].startY 1262m
param *.uav[84].startZ 540m
param *.uav[85].startX 2185m
param *.uav[85].startY 3026m
param *.uav[85].startZ 778m
param *.uav[86].startX 3537m
param *.uav[86].startY 965m
param *.uav[86].startZ 539m
param *.uav[87].startX 312m
param *.uav[87].startY 1262m
param *.uav[87].startZ 540m
param *.uav[88].startX 2185m
param *.uav[88].startY 3026m
param *.uav[88].startZ 778m
param *.uav[89].startX 3537m
param *.uav[89].startY 965m
param *.uav[89].startZ 539m
param *.uav[90].startX 3537m
param *.uav[90].startY 965m
param *.uav[90].startZ 539m
param *.uav[91].startX 312m
param *.uav[91].startY 1262m
param *.uav[91].startZ 540m
param *.uav[92].startX 2185m
param *.uav[92].startY 3026m
param *.uav[92].startZ 778m
param *.uav[93].startX 3537m
param *.uav[93].startY 965m
param *.uav[93].startZ 539m
param *.uav[94].startX 312m
param *.uav[94].startY 1262m
param *.uav[94].startZ 540m
param *.uav[95].startX 2185m
param *.uav[95].startY 3026m
param *.uav[95].startZ 778m
param *.uav[96].startX 3537m
param *.uav[96].startY 965m
param *.uav[96].startZ 539m
param *.uav[97].startX 312m
param *.uav[97].startY 1262m
param *.uav[97].startZ 540m
param *.uav[98].startX 2185m
param *.uav[98].startY 3026m
param *.uav[98].startZ 778m
param *.uav[99].startX 3537m
param *.uav[99].startY 965m
param *.uav[99].startZ 539m
param *.osgEarthScene.scene "\"boston.earth\""
param *.playgroundLatitude 42.3558
param *.playgroundLongitude -71.0677
param *.playgroundWidth 400m
param *.playgroundHeight 200m
param *.channelController.connectionColor "\"#0000FF40\""
param *.channelController.showConnections false
param *.uav[*].modelURL "\"quadrocopter.small.obj.15.scale.0,0,90.rot\""
param *.uav[*].labelColor "\"#FF7C00CC\""
param *.uav[*].label2Color "\"#FF7C00EE\""
param *.uav[*].batteryCapacity 5200mAh
param *.uav[*].batteryRemaining uav[index].batteryCapacity
param *.uav[*].predictionQuantile 0.95
param *.uav[*].replacementMethod 2
param *.uav[*].weightedSumWeight 0.5
param *.cs[*].modelURL "\"chargingstation_v1.osgt.2.scale.0,0,0.rot.0,0,-15e-1.trans\""
param *.cs[*].spotsWaiting 999
param *.cs[*].spotsCharging 999
param *.cs[*].chargeEffectivenessPercentage 100
param *.cs[*].nonLinearPhaseStartPercentage 85
param *.cs[*].chargeCurrent 6.0A
param *.cs[*].prioritizeFastCharge true
param *.missionControl.replacementSearchMethod 0
param *.*.timeStep 9s

scalar OsgEarthNet.uav[0] utilizationSecMission 25848.606534156
scalar OsgEarthNet.uav[0] utilizationSecMaintenance 20293.703889855
scalar OsgEarthNet.uav[0] utilizationSecCharge 166963.67030626
scalar OsgEarthNet.uav[0] utilizationSecIdle 46094.018269728
scalar OsgEarthNet.uav[0] utilizationEnergyMission 119734.77539825
scalar OsgEarthNet.uav[0] utilizationEnergyMaintenance 93911.600925446
scalar OsgEarthNet.uav[0] utilizationEnergyCharge 209255.67279053
scalar OsgEarthNet.uav[0] utilizationEnergyOverdrawMission 0
scalar OsgEarthNet.uav[0] utilizationEnergyOverdrawMaintenance 0
scalar OsgEarthNet.uav[0] utilizationCountMissions 47
scalar OsgEarthNet.uav[0] utilizationCountManeuversMission 425
scalar OsgEarthNet.uav[0] utilizationCountManeuversMaintenance 94
scalar OsgEarthNet.uav[0] utilizationCountChargeState 47
scalar OsgEarthNet.uav[0] utilizationCountOverdrawnAfterMission 0
scalar OsgEarthNet.uav[0] utilizationCountIdleState 47
scalar OsgEarthNet.uav[0] utilizationFail 0
scalar OsgEarthNet.uav[0] simulationTime 259200
scalar OsgEarthNet.uav[1] utilizationSecMission 12991.138535149
scalar OsgEarthNet.uav[1] utilizationSecMaintenance 9402.4781884615
scalar OsgEarthNet.uav[1] utilizationSecCharge 82400
scalar OsgEarthNet.uav[1] utilizationSecIdle 154406.38227639
scalar OsgEarthNet.uav[1] utilizationEnergyMission 59709.414825439
scalar OsgEarthNet.uav[1] utilizationEnergyMaintenance 44364.952732086
scalar OsgEarthNet.uav[1] utilizationEnergyCharge 104108.35888672
scalar OsgEarthNet.uav[1] utilizationEnergyOverdrawMission 0
scalar OsgEarthNet.uav[1] utilizationEnergyOverdrawMaintenance 0
scalar OsgEarthNet.uav[1] utilizationCountMissions 22
scalar OsgEarthNet.uav[1] utilizationCountManeuversMission 216
scalar OsgEarthNet.uav[1] utilizationCountManeuversMaintenance 44
scalar OsgEarthNet.uav[1] utilizationCountChargeState 22
scalar OsgEarthNet.uav[1] utilizationCountOverdrawnAfterMission 0
scalar OsgEarthNet.uav[1] utilizationCountIdleState 23
scalar OsgEarthNet.uav[1] utilizationFail 0
scalar OsgEarthNet.uav[1] simulationTime 259200
scalar OsgEarthNet.uav[2] utilizationSecMission 694.00169469977
scalar OsgEarthNet.uav[2] utilizationSecMaintenance 338.49695459722
scalar OsgEarthNet.uav[2] utilizationSecCharge 3690
scalar OsgEarthNet.uav[2] utilizationSecIdle 254477.5003507
scalar OsgEarthNet.uav[2] utilizationEnergyMission 3301.2412490845
scalar OsgEarthNet.uav[2] utilizationEnergyMaintenance 1282.6845817566
scalar OsgEarthNet.uav[2] utilizationEnergyCharge 4583.9287109375
scalar OsgEarthNet.uav[2] utilizationEnergyOverdrawMission 0
scalar OsgEarthNet.uav[2] utilizationEnergyOverdrawMaintenance 0
scalar OsgEarthNet.uav[2] utilizationCountMissions 1
scalar OsgEarthNet.uav[2] utilizationCountManeuversMission 13
scalar OsgEarthNet.uav[2] utilizationCountManeuversMaintenance 2
scalar OsgEarthNet.uav[2] utilizationCountChargeState 1
scalar OsgEarthNet.uav[2] utilizationCountOverdrawnAfterMission 0
scalar OsgEarthNet.uav[2] utilizationCountIdleState 2
scalar OsgEarthNet.uav[2] utilizationFail 0
scalar OsgEarthNet.uav[2] simulationTime 259200
scalar OsgEarthNet.uav[3] utilizationSecMission 313.66140879233
scalar OsgEarthNet.uav[3] utilizationSecMaintenance 473.03391658586
scalar OsgEarthNet.uav[3] utilizationSecCharge 3190
scalar OsgEarthNet.uav[3] utilizationSecIdle 255223.30367462
scalar OsgEarthNet.uav[3] utilizationEnergyMission 1557.6356201172
scalar OsgEarthNet.uav[3] utilizationEnergyMaintenance 2202.2676620483
scalar OsgEarthNet.uav[3] utilizationEnergyCharge 3759.9008789062
scalar OsgEarthNet.uav[3] utilizationEnergyOverdrawMission 0
scalar OsgEarthNet.uav[3] utilizationEnergyOverdrawMaintenance 0
scalar OsgEarthNet.uav[3] utilizationCountMissions 1
scalar OsgEarthNet.uav[3] utilizationCountManeuversMission 5
scalar OsgEarthNet.uav[3] utilizationCountManeuversMaintenance 2
scalar OsgEarthNet.uav[3] utilizationCountChargeState 1
scalar OsgEarthNet.uav[3] utilizationCountOverdrawnAfterMission 0
scalar OsgEarthNet.uav[3] utilizationCountIdleState 2
scalar OsgEarthNet.uav[3] utilizationFail 0
scalar OsgEarthNet.uav[3] simulationTime 259200
scalar OsgEarthNet.uav[4] utilizationSecMission 19538.865304194
scalar OsgEarthNet.uav[4] utilizationSecMaintenance 13557.147059024
scalar OsgEarthNet.uav[4] utilizationSecCharge 120771.43423
scalar OsgEarthNet.uav[4] utilizationSecIdle 105332.55240678
scalar OsgEarthNet.uav[4] utilizationEnergyMission 90905.978897095
scalar OsgEarthNet.uav[4] utilizationEnergyMaintenance 63260.869762421
scalar OsgEarthNet.uav[4] utilizationEnergyCharge 153280.7734375
scalar OsgEarthNet.uav[4] utilizationEnergyOverdrawMission 0
scalar OsgEarthNet.uav[4] utilizationEnergyOverdrawMaintenance 0
scalar OsgEarthNet.uav[4] utilizationCountMissions 33
scalar OsgEarthNet.uav[4] utilizationCountManeuversMission 326
scalar OsgEarthNet.uav[4] utilizationCountManeuversMaintenance 66
scalar OsgEarthNet.uav[4] utilizationCountChargeState 33
scalar OsgEarthNet.uav[4] utilizationCountOverdrawnAfterMission 0
scalar OsgEarthNet.uav[4] utilizationCountIdleState 33
scalar OsgEarthNet.uav[4] utilizationFail 0
scalar OsgEarthNet.uav[4] simulationTime 259200
scalar OsgEarthNet.uav[5] utilizationSecMission 29713.19674789
scalar OsgEarthNet.uav[5] utilizationSecMaintenance 18067.611716066
scalar OsgEarthNet.uav[5] utilizationSecCharge 174619.97092213
scalar OsgEarthNet.uav[5] utilizationSecIdle 36799.219613916
scalar OsgEarthNet.uav[5] utilizationEnergyMission 137827.95418549
scalar OsgEarthNet.uav[5] utilizationEnergyMaintenance 83482.417739868
scalar OsgEarthNet.uav[5] utilizationEnergyCharge 220394.12524414
scalar OsgEarthNet.uav[5] utilizationEnergyOverdrawMission 0
scalar OsgEarthNet.uav[5] utilizationEnergyOverdrawMaintenance 0
scalar OsgEarthNet.uav[5] utilizationCountMissions 48
scalar OsgEarthNet.uav[5] utilizationCountManeuversMission 480
scalar OsgEarthNet.uav[5] utilizationCountManeuversMaintenance 96
scalar OsgEarthNet.uav[5] utilizationCountChargeState 48
scalar OsgEarthNet.uav[5] utilizationCountOverdrawnAfterMission 0
scalar OsgEarthNet.uav[5] utilizationCountIdleState 48
scalar OsgEarthNet.uav[5] utilizationFail 0
scalar OsgEarthNet.uav[5] simulationTime 259200
scalar OsgEarthNet.uav[6] utilizationSecMission 27564.841649578
scalar OsgEarthNet.uav[6] utilizationSecMaintenance 18767.966947256
scalar OsgEarthNet.uav[6] utilizationSecCharge 169844.42443783
scalar OsgEarthNet.uav[6] utilizationSecIdle 43022.765965339
scalar OsgEarthNet.uav[6] utilizationEnergyMission 126894.92627335
scalar OsgEarthNet.uav[6] utilizationEnergyMaintenance 88388.703426361
scalar OsgEarthNet.uav[6] utilizationEnergyCharge 214080.26342773
scalar OsgEarthNet.uav[6] utilizationEnergyOverdrawMission 0
scalar OsgEarthNet.uav[6] utilizationEnergyOverdrawMaintenance 0
scalar OsgEarthNet.uav[6] utilizationCountMissions 47
scalar OsgEarthNet.uav[6] utilizationCountManeuversMission 443
scalar OsgEarthNet.uav[6] utilizationCountManeuversMaintenance 94
scalar OsgEarthNet.uav[6] utilizationCountChargeState 47
scalar OsgEarthNet.uav[6] utilizationCountOverdrawnAfterMission 0
scalar OsgEarthNet.uav[6] utilizationCountIdleState 47
scalar OsgEarthNet.uav[6] utilizationFail 0
scalar OsgEarthNet.uav[6] simulationTime 259200
scalar OsgEarthNet.uav[7] utilizationSecMission 30351.101142324
scalar OsgEarthNet.uav[7] utilizationSecMaintenance 17656.897857676
scalar OsgEarthNet.uav[7] utilizationSecCharge 175640
scalar OsgEarthNet.uav[7] utilizationSecIdle 35552
scalar OsgEarthNet.uav[7] utilizationEnergyMission 140746.67113205
scalar OsgEarthNet.uav[7] utilizationEnergyMaintenance 82351.68421936
scalar OsgEarthNet.uav[7] utilizationEnergyCharge 220883.57519531
scalar OsgEarthNet.uav[7] utilizationEnergyOverdrawMission 0
scalar OsgEarthNet.uav[7] utilizationEnergyOverdrawMaintenance 0
scalar OsgEarthNet.uav[7] utilizationCountMissions 48
scalar OsgEarthNet.uav[7] utilizationCountManeuversMission 491
scalar OsgEarthNet.uav[7] utilizationCountManeuversMaintenance 96
scalar OsgEarthNet.uav[7] utilizationCountChargeState 48
scalar OsgEarthNet.uav[7] utilizationCountOverdrawnAfterMission 0
scalar OsgEarthNet.uav[7] utilizationCountIdleState 49
scalar OsgEarthNet.uav[7] utilizationFail 0
scalar OsgEarthNet.uav[7] simulationTime 259200
scalar OsgEarthNet.uav[8] utilizationSecMission 24566.604347336
scalar OsgEarthNet.uav[8] utilizationSecMaintenance 16577.044431842
scalar OsgEarthNet.uav[8] utilizationSecCharge 152160
scalar OsgEarthNet.uav[8] utilizationSecIdle 65896.350220821
scalar OsgEarthNet.uav[8] utilizationEnergyMission 114234.50460825
scalar OsgEarthNet.uav[8] utilizationEnergyMaintenance 76692.923156738
scalar OsgEarthNet.uav[8] utilizationEnergyCharge 190520.13549805
scalar OsgEarthNet.uav[8] utilizationEnergyOverdrawMission 0
scalar OsgEarthNet.uav[8] utilizationEnergyOverdrawMaintenance 0
scalar OsgEarthNet.uav[8] utilizationCountMissions 42
scalar OsgEarthNet.uav[8] utilizationCountManeuversMission 406
scalar OsgEarthNet.uav[8] utilizationCountManeuversMaintenance 85
scalar OsgEarthNet.uav[8] utilizationCountChargeState 42
scalar OsgEarthNet.uav[8] utilizationCountOverdrawnAfterMission 0
scalar OsgEarthNet.uav[8] utilizationCountIdleState 43
scalar OsgEarthNet.uav[8] utilizationFail 0
scalar OsgEarthNet.uav[8] simulationTime 259200
scalar OsgEarthNet.uav[9] utilizationSecMission 2280.5189020687
scalar OsgEarthNet.uav[9] utilizationSecMaintenance 1763.7765715664
scalar OsgEarthNet.uav[9] utilizationSecCharge 14850
scalar OsgEarthNet.uav[9] utilizationSecIdle 240305.70352636
scalar OsgEarthNet.uav[9] utilizationEnergyMission 10723.76612854
scalar OsgEarthNet.uav[9] utilizationEnergyMaintenance 8038.7739219665
scalar OsgEarthNet.uav[9] utilizationEnergyCharge 18762.545898438
scalar OsgEarthNet.uav[9] utilizationEnergyOverdrawMission 0
scalar OsgEarthNet.uav[9] utilizationEnergyOverdrawMaintenance 0
scalar OsgEarthNet.uav[9] utilizationCountMissions 4
scalar OsgEarthNet.uav[9] utilizationCountManeuversMission 38
scalar OsgEarthNet.uav[9] utilizationCountManeuversMaintenance 8
scalar OsgEarthNet.uav[9] utilizationCountChargeState 4
scalar OsgEarthNet.uav[9] utilizationCountOverdrawnAfterMission 0
scalar OsgEarthNet.uav[9] utilizationCountIdleState 5
scalar OsgEarthNet.uav[9] utilizationFail 0
scalar OsgEarthNet.uav[9] simulationTime 259200
scalar OsgEarthNet.uav[10] utilizationSecMission 553.12566654921
scalar OsgEarthNet.uav[10] utilizationSecMaintenance 450.43069856406
scalar OsgEarthNet.uav[10] utilizationSecCharge 3910
scalar OsgEarthNet.uav[10] utilizationSecIdle 254286.44263489
scalar OsgEarthNet.uav[10] utilizationEnergyMission 2538.2783813477
scalar OsgEarthNet.uav[10] utilizationEnergyMaintenance 2414.0817375183
scalar OsgEarthNet.uav[10] utilizationEnergyCharge 5010.16796875
scalar OsgEarthNet.uav[10] utilizationEnergyOverdrawMission 0
scalar OsgEarthNet.uav[10] utilizationEnergyOverdrawMaintenance 0
scalar OsgEarthNet.uav[10] utilizationCountMissions 1
scalar OsgEarthNet.uav[10] utilizationCountManeuversMission 9
scalar OsgEarthNet.uav[10] utilizationCountManeuversMaintenance 2
scalar OsgEarthNet.uav[10] utilizationCountChargeState 1
scalar OsgEarthNet.uav[10] utilizationCountOverdrawnAfterMission 0
scalar OsgEarthNet.uav[10] utilizationCountIdleState 2
scalar OsgEarthNet.uav[10] utilizationFail 0
scalar OsgEarthNet.uav[10] simulationTime 259200
scalar OsgEarthNet.uav[11] utilizationSecMission 553.12566654921
scalar OsgEarthNet.uav[11] utilizationSecMaintenance 489.82638271256
scalar OsgEarthNet.uav[11] utilizationSecCharge 3680
scalar OsgEarthNet.uav[11] utilizationSecIdle 254477.04695074
scalar OsgEarthNet.uav[11] utilizationEnergyMission 2416.7022781372
scalar OsgEarthNet.uav[11] utilizationEnergyMaintenance 2175.6587944031
scalar OsgEarthNet.uav[11] utilizationEnergyCharge 4578.0712890625
scalar OsgEarthNet.uav[11] utilizationEnergyOverdrawMission 0
scalar OsgEarthNet.uav[11] utilizationEnergyOverdrawMaintenance 0
scalar OsgEarthNet.uav[11] utilizationCountMissions 1
scalar OsgEarthNet.uav[11] utilizationCountManeuversMission 9
scalar OsgEarthNet.uav[11] utilizationCountManeuversMaintenance 2
scalar OsgEarthNet.uav[11] utilizationCountChargeState 1
scalar OsgEarthNet.uav[11] utilizationCountOverdrawnAfterMission 0
scalar OsgEarthNet.uav[11] utilizationCountIdleState 2
scalar OsgEarthNet.uav[11] utilizationFail 0
scalar OsgEarthNet.uav[11] simulationTime 259200
scalar OsgEarthNet.uav[12] utilizationSecMission 22391.882199088
scalar OsgEarthNet.uav[12] utilizationSecMaintenance 15520.256722982
scalar OsgEarthNet.uav[12] utilizationSecCharge 141221.15471539
scalar OsgEarthNet.uav[12] utilizationSecIdle 80066.705362542
scalar OsgEarthNet.uav[12] utilizationEnergyMission 104712.36335754
scalar OsgEarthNet.uav[12] utilizationEnergyMaintenance 73148.618366241
scalar OsgEarthNet.uav[12] utilizationEnergyCharge 177515.07421875
scalar OsgEarthNet.uav[12] utilizationEnergyOverdrawMission 0
scalar OsgEarthNet.uav[12] utilizationEnergyOverdrawMaintenance 0
scalar OsgEarthNet.uav[12] utilizationCountMissions 39
scalar OsgEarthNet.uav[12] utilizationCountManeuversMission 372
scalar OsgEarthNet.uav[12] utilizationCountManeuversMaintenance 78
scalar OsgEarthNet.uav[12] utilizationCountChargeState 39
scalar OsgEarthNet.uav[12] utilizationCountOverdrawnAfterMission 0
scalar OsgEarthNet.uav[12] utilizationCountIdleState 39
scalar OsgEarthNet.uav[12] utilizationFail 0
scalar OsgEarthNet.uav[12] simulationTime 259200
scalar OsgEarthNet.uav[13] utilizationSecMission 19869.011572806
scalar OsgEarthNet.uav[13] utilizationSecMaintenance 14322.654845999
scalar OsgEarthNet.uav[13] utilizationSecCharge 124781.18355049
scalar OsgEarthNet.uav[13] utilizationSecIdle 100227.1490307
scalar OsgEarthNet.uav[13] utilizationEnergyMission 92421.494445801
scalar OsgEarthNet.uav[13] utilizationEnergyMaintenance 65918.140151978
scalar OsgEarthNet.uav[13] utilizationEnergyCharge 156679.49926758
scalar OsgEarthNet.uav[13] utilizationEnergyOverdrawMission 0
scalar OsgEarthNet.uav[13] utilizationEnergyOverdrawMaintenance 0
scalar OsgEarthNet.uav[13] utilizationCountMissions 35
scalar OsgEarthNet.uav[13] utilizationCountManeuversMission 331
scalar OsgEarthNet.uav[13] utilizationCountManeuversMaintenance 70
scalar OsgEarthNet.uav[13] utilizationCountChargeState 35
scalar OsgEarthNet.uav[13] utilizationCountOverdrawnAfterMission 0
scalar OsgEarthNet.uav[13] utilizationCountIdleState 35
scalar OsgEarthNet.uav[13] utilizationFail 0
scalar OsgEarthNet.uav[13] simulationTime 259200
scalar OsgEarthNet.uav[14] utilizationSecMission 26374.197285637
scalar OsgEarthNet.uav[14] utilizationSecMaintenance 17014.533876614
scalar OsgEarthNet.uav[14] utilizationSecCharge 157207.50881556
scalar OsgEarthNet.uav[14] utilizationSecIdle 58603.759022191
scalar OsgEarthNet.uav[14] utilizationEnergyMission 122849.07008362
scalar OsgEarthNet.uav[14] utilizationEnergyMaintenance 78143.30513382
scalar OsgEarthNet.uav[14] utilizationEnergyCharge 197070.53424072
scalar OsgEarthNet.uav[14] utilizationEnergyOverdrawMission 0
scalar OsgEarthNet.uav[14] utilizationEnergyOverdrawMaintenance 0
scalar OsgEarthNet.uav[14] utilizationCountMissions 44
scalar OsgEarthNet.uav[14] utilizationCountManeuversMission 431
scalar OsgEarthNet.uav[14] utilizationCountManeuversMaintenance 88
scalar OsgEarthNet.uav[14] utilizationCountChargeState 44
scalar OsgEarthNet.uav[14] utilizationCountOverdrawnAfterMission 0
scalar OsgEarthNet.uav[14] utilizationCountIdleState 44
scalar OsgEarthNet.uav[14] utilizationFail 0
scalar OsgEarthNet.uav[14] simulationTime 259200
scalar OsgEarthNet.uav[15] utilizationSecMission 836.61593493339
scalar OsgEarthNet.uav[15] utilizationSecMaintenance 137.80524816792
scalar OsgEarthNet.uav[15] utilizationSecCharge 3550
scalar OsgEarthNet.uav[15] utilizationSecIdle 254675.5778169
scalar OsgEarthNet.uav[15] utilizationEnergyMission 3992.3139648438
scalar OsgEarthNet.uav[15] utilizationEnergyMaintenance 572.38661956787
scalar OsgEarthNet.uav[15] utilizationEnergyCharge 4336.0004882812
scalar OsgEarthNet.uav[15] utilizationEnergyOverdrawMission 0
scalar OsgEarthNet.uav[15] utilizationEnergyOverdrawMaintenance 0
scalar OsgEarthNet.uav[15] utilizationCountMissions 1
scalar OsgEarthNet.uav[15] utilizationCountManeuversMission 13
scalar OsgEarthNet.uav[15] utilizationCountManeuversMaintenance 2
scalar OsgEarthNet.uav[15] utilizationCountChargeState 1
scalar OsgEarthNet.uav[15] utilizationCountOverdrawnAfterMission 0
scalar OsgEarthNet.uav[15] utilizationCountIdleState 2
scalar OsgEarthNet.uav[15] utilizationFail 0
scalar OsgEarthNet.uav[15] simulationTime 259200
scalar OsgEarthNet.uav[16] utilizationSecMission 28541.38385227
scalar OsgEarthNet.uav[16] utilizationSecMaintenance 20391.867229959
scalar OsgEarthNet.uav[16] utilizationSecCharge 181140
scalar OsgEarthNet.uav[16] utilizationSecIdle 29126.747917771
scalar OsgEarthNet.uav[16] utilizationEnergyMission 132094.41937256
scalar OsgEarthNet.uav[16] utilizationEnergyMaintenance 94193.123035431
scalar OsgEarthNet.uav[16] utilizationEnergyCharge 226381.15209961
scalar OsgEarthNet.uav[16] utilizationEnergyOverdrawMission 0
scalar OsgEarthNet.uav[16] utilizationEnergyOverdrawMaintenance 0
scalar OsgEarthNet.uav[16] utilizationCountMissions 50
scalar OsgEarthNet.uav[16] utilizationCountManeuversMission 456
scalar OsgEarthNet.uav[16] utilizationCountManeuversMaintenance 99
scalar OsgEarthNet.uav[16] utilizationCountChargeState 50
scalar OsgEarthNet.uav[16] utilizationCountOverdrawnAfterMission 0
scalar OsgEarthNet.uav[16] utilizationCountIdleState 51
scalar OsgEarthNet.uav[16] utilizationFail 0
scalar OsgEarthNet.uav[16] simulationTime 259200
scalar OsgEarthNet.uav[17] utilizationSecMission 18583.3864026
scalar OsgEarthNet.uav[17] utilizationSecMaintenance 12035.20757303
scalar OsgEarthNet.uav[17] utilizationSecCharge 110027.31276946
scalar OsgEarthNet.uav[17] utilizationSecIdle 118554.09225491
scalar OsgEarthNet.uav[17] utilizationEnergyMission 86634.719169617
scalar OsgEarthNet.uav[17] utilizationEnergyMaintenance 54702.55557251
scalar OsgEarthNet.uav[17] utilizationEnergyCharge 138186.95300293
scalar OsgEarthNet.uav[17] utilizationEnergyOverdrawMission 0
scalar OsgEarthNet.uav[17] utilizationEnergyOverdrawMaintenance 0
scalar OsgEarthNet.uav[17] utilizationCountMissions 31
scalar OsgEarthNet.uav[17] utilizationCountManeuversMission 312
scalar OsgEarthNet.uav[17] utilizationCountManeuversMaintenance 62
scalar OsgEarthNet.uav[17] utilizationCountChargeState 31
scalar OsgEarthNet.uav[17] utilizationCountOverdrawnAfterMission 0
scalar OsgEarthNet.uav[17] utilizationCountIdleState 31
scalar OsgEarthNet.uav[17] utilizationFail 0
scalar OsgEarthNet.uav[17] simulationTime 259200
scalar OsgEarthNet.uav[18] utilizationSecMission 27197.479438692
scalar OsgEarthNet.uav[18] utilizationSecMaintenance 17180.71798592
scalar OsgEarthNet.uav[18] utilizationSecCharge 164702.3762281
scalar OsgEarthNet.uav[18] utilizationSecIdle 50119.42534729
scalar OsgEarthNet.uav[18] utilizationEnergyMission 128625.62831116
scalar OsgEarthNet.uav[18] utilizationEnergyMaintenance 79140.358989716
scalar OsgEarthNet.uav[18] utilizationEnergyCharge 206857.35644531
scalar OsgEarthNet.uav[18] utilizationEnergyOverdrawMission 0
scalar OsgEarthNet.uav[18] utilizationEnergyOverdrawMaintenance 0
scalar OsgEarthNet.uav[18] utilizationCountMissions 45
scalar OsgEarthNet.uav[18] utilizationCountManeuversMission 433
scalar OsgEarthNet.uav[18] utilizationCountManeuversMaintenance 90
scalar OsgEarthNet.uav[18] utilizationCountChargeState 45
scalar OsgEarthNet.uav[18] utilizationCountOverdrawnAfterMission 0
scalar OsgEarthNet.uav[18] utilizationCountIdleState 45
scalar OsgEarthNet.uav[18] utilizationFail 0
scalar OsgEarthNet.uav[18] simulationTime 259200
scalar OsgEarthNet.uav[19] utilizationSecMission 26365.460290652
scalar OsgEarthNet.uav[19] utilizationSecMaintenance 19989.578225931
scalar OsgEarthNet.uav[19] utilizationSecCharge 168521.56836588
scalar OsgEarthNet.uav[19] utilizationSecIdle 44323.392117534
scalar OsgEarthNet.uav[19] utilizationEnergyMission 121822.88664246
scalar OsgEarthNet.uav[19] utilizationEnergyMaintenance 93342.64553833
scalar OsgEarthNet.uav[19] utilizationEnergyCharge 211812.97875977
scalar OsgEarthNet.uav[19] utilizationEnergyOverdrawMission 0
scalar OsgEarthNet.uav[19] utilizationEnergyOverdrawMaintenance 0
scalar OsgEarthNet.uav[19] utilizationCountMissions 47
scalar OsgEarthNet.uav[19] utilizationCountManeuversMission 434
scalar OsgEarthNet.uav[19] utilizationCountManeuversMaintenance 94
scalar OsgEarthNet.uav[19] utilizationCountChargeState 47
scalar OsgEarthNet.uav[19] utilizationCountOverdrawnAfterMission 0
scalar OsgEarthNet.uav[19] utilizationCountIdleState 47
scalar OsgEarthNet.uav[19] utilizationFail 0
scalar OsgEarthNet.uav[19] simulationTime 259200
scalar OsgEarthNet.uav[20] utilizationSecMission 545.05972348896
scalar OsgEarthNet.uav[20] utilizationSecMaintenance 427.36308650536
scalar OsgEarthNet.uav[20] utilizationSecCharge 3510
scalar OsgEarthNet.uav[20] utilizationSecIdle 254717.57619001
scalar OsgEarthNet.uav[20] utilizationEnergyMission 2434.392868042
scalar OsgEarthNet.uav[20] utilizationEnergyMaintenance 1894.578666687
scalar OsgEarthNet.uav[20] utilizationEnergyCharge 4339.41796875
scalar OsgEarthNet.uav[20] utilizationEnergyOverdrawMission 0
scalar OsgEarthNet.uav[20] utilizationEnergyOverdrawMaintenance 0
scalar OsgEarthNet.uav[20] utilizationCountMissions 1
scalar OsgEarthNet.uav[20] utilizationCountManeuversMission 9
scalar OsgEarthNet.uav[20] utilizationCountManeuversMaintenance 2
scalar OsgEarthNet.uav[20] utilizationCountChargeState 1
scalar OsgEarthNet.uav[20] utilizationCountOverdrawnAfterMission 0
scalar OsgEarthNet.uav[20] utilizationCountIdleState 2
scalar OsgEarthNet.uav[20] utilizationFail 0
scalar OsgEarthNet.uav[20] simulationTime 259200
scalar OsgEarthNet.uav[21] utilizationSecMission 25984.115493057
scalar OsgEarthNet.uav[21] utilizationSecMaintenance 19389.18078273
scalar OsgEarthNet.uav[21] utilizationSecCharge 166736.68441977
scalar OsgEarthNet.uav[21] utilizationSecIdle 47090.018304444
scalar OsgEarthNet.uav[21] utilizationEnergyMission 119916.61893463
scalar OsgEarthNet.uav[21] utilizationEnergyMaintenance 89787.744060516
scalar OsgEarthNet.uav[21] utilizationEnergyCharge 208406.20874023
scalar OsgEarthNet.uav[21] utilizationEnergyOverdrawMission 0
scalar OsgEarthNet.uav[21] utilizationEnergyOverdrawMaintenance 0
scalar OsgEarthNet.uav[21] utilizationCountMissions 47
scalar OsgEarthNet.uav[21] utilizationCountManeuversMission 423
scalar OsgEarthNet.uav[21] utilizationCountManeuversMaintenance 94
scalar OsgEarthNet.uav[21] utilizationCountChargeState 47
scalar OsgEarthNet.uav[21] utilizationCountOverdrawnAfterMission 0
scalar OsgEarthNet.uav[21] utilizationCountIdleState 47
scalar OsgEarthNet.uav[21] utilizationFail 0
scalar OsgEarthNet.uav[21] simulationTime 259200
scalar OsgEarthNet.uav[22] utilizationSecMission 694.00169469977
scalar OsgEarthNet.uav[22] utilizationSecMaintenance 338.49695459722
scalar OsgEarthNet.uav[22] utilizationSecCharge 3790
scalar OsgEarthNet.uav[22] utilizationSecIdle 254377.5003507
scalar OsgEarthNet.uav[22] utilizationEnergyMission 3220.2195281982
scalar OsgEarthNet.uav[22] utilizationEnergyMaintenance 1581.2295646667
scalar OsgEarthNet.uav[22] utilizationEnergyCharge 4801.4516601562
scalar OsgEarthNet.uav[22] utilizationEnergyOverdrawMission 0
scalar OsgEarthNet.uav[22] utilizationEnergyOverdrawMaintenance 0
scalar OsgEarthNet.uav[22] utilizationCountMissions 1
scalar OsgEarthNet.uav[22] utilizationCountManeuversMission 13
scalar OsgEarthNet.uav[22] utilizationCountManeuversMaintenance 2
scalar OsgEarthNet.uav[22] utilizationCountChargeState 1
scalar OsgEarthNet.uav[22] utilizationCountOverdrawnAfterMission 0
scalar OsgEarthNet.uav[22] utilizationCountIdleState 2
scalar OsgEarthNet.uav[22] utilizationFail 0
scalar OsgEarthNet.uav[22] simulationTime 259200
scalar OsgEarthNet.uav[23] utilizationSecMission 536.06111026321
scalar OsgEarthNet.uav[23] utilizationSecMaintenance 387.76056727994
scalar OsgEarthNet.uav[23] utilizationSecCharge 3660
scalar OsgEarthNet.uav[23] utilizationSecIdle 254616.17732246
scalar OsgEarthNet.uav[23] utilizationEnergyMission 2621.9552154541
scalar OsgEarthNet.uav[23] utilizationEnergyMaintenance 1949.544090271
scalar OsgEarthNet.uav[23] utilizationEnergyCharge 4571.4975585938
scalar OsgEarthNet.uav[23] utilizationEnergyOverdrawMission 0
scalar OsgEarthNet.uav[23] utilizationEnergyOverdrawMaintenance 0
scalar OsgEarthNet.uav[23] utilizationCountMissions 1
scalar OsgEarthNet.uav[23] utilizationCountManeuversMission 8
scalar OsgEarthNet.uav[23] utilizationCountManeuversMaintenance 2
scalar OsgEarthNet.uav[23] utilizationCountChargeState 1
scalar OsgEarthNet.uav[23] utilizationCountOverdrawnAfterMission 0
scalar OsgEarthNet.uav[23] utilizationCountIdleState 2
scalar OsgEarthNet.uav[23] utilizationFail 0
scalar OsgEarthNet.uav[23] simulationTime 259200
scalar OsgEarthNet.uav[24] utilizationSecMission 28857.432035435
scalar OsgEarthNet.uav[24] utilizationSecMaintenance 19584.011511608
scalar OsgEarthNet.uav[24] utilizationSecCharge 175490.09917578
scalar OsgEarthNet.uav[24] utilizationSecIdle 35268.456277181
scalar OsgEarthNet.uav[24] utilizationEnergyMission 132325.4874649
scalar OsgEarthNet.uav[24] utilizationEnergyMaintenance 90057.475456238
scalar OsgEarthNet.uav[24] utilizationEnergyCharge 220177.19604492
scalar OsgEarthNet.uav[24] utilizationEnergyOverdrawMission 0
scalar OsgEarthNet.uav[24] utilizationEnergyOverdrawMaintenance 0
scalar OsgEarthNet.uav[24] utilizationCountMissions 49
scalar OsgEarthNet.uav[24] utilizationCountManeuversMission 464
scalar OsgEarthNet.uav[24] utilizationCountManeuversMaintenance 98
scalar OsgEarthNet.uav[24] utilizationCountChargeState 49
scalar OsgEarthNet.uav[24] utilizationCountOverdrawnAfterMission 0
scalar OsgEarthNet.uav[24] utilizationCountIdleState 49
scalar OsgEarthNet.uav[24] utilizationFail 0
scalar OsgEarthNet.uav[24] simulationTime 259200
scalar OsgEarthNet.uav[25] utilizationSecMission 2264.7773933466
scalar OsgEarthNet.uav[25] utilizationSecMaintenance 797.34523100166
scalar OsgEarthNet.uav[25] utilizationSecCharge 11040
scalar OsgEarthNet.uav[25] utilizationSecIdle 245097.87637565
scalar OsgEarthNet.uav[25] utilizationEnergyMission 10319.25819397
scalar OsgEarthNet.uav[25] utilizationEnergyMaintenance 3673.5830116272
scalar OsgEarthNet.uav[25] utilizationEnergyCharge 13939.87890625
scalar OsgEarthNet.uav[25] utilizationEnergyOverdrawMission 0
scalar OsgEarthNet.uav[25] utilizationEnergyOverdrawMaintenance 0
scalar OsgEarthNet.uav[25] utilizationCountMissions 3
scalar OsgEarthNet.uav[25] utilizationCountManeuversMission 37
scalar OsgEarthNet.uav[25] utilizationCountManeuversMaintenance 6
scalar OsgEarthNet.uav[25] utilizationCountChargeState 3
scalar OsgEarthNet.uav[25] utilizationCountOverdrawnAfterMission 0
scalar OsgEarthNet.uav[25] utilizationCountIdleState 4
scalar OsgEarthNet.uav[25] utilizationFail 0
scalar OsgEarthNet.uav[25] simulationTime 259200
scalar OsgEarthNet.uav[26] utilizationSecMission 24406.939943012
scalar OsgEarthNet.uav[26] utilizationSecMaintenance 15532.751185146
scalar OsgEarthNet.uav[26] utilizationSecCharge 143563.78499334
scalar OsgEarthNet.uav[26] utilizationSecIdle 75696.522878507
scalar OsgEarthNet.uav[26] utilizationEnergyMission 111063.56917953
scalar OsgEarthNet.uav[26] utilizationEnergyMaintenance 71313.321422577
scalar OsgEarthNet.uav[26] utilizationEnergyCharge 180803.99414062
scalar OsgEarthNet.uav[26] utilizationEnergyOverdrawMission 0
scalar OsgEarthNet.uav[26] utilizationEnergyOverdrawMaintenance 0
scalar OsgEarthNet.uav[26] utilizationCountMissions 40
scalar OsgEarthNet.uav[26] utilizationCountManeuversMission 414
scalar OsgEarthNet.uav[26] utilizationCountManeuversMaintenance 80
scalar OsgEarthNet.uav[26] utilizationCountChargeState 40
scalar OsgEarthNet.uav[26] utilizationCountOverdrawnAfterMission 0
scalar OsgEarthNet.uav[26] utilizationCountIdleState 40
scalar OsgEarthNet.uav[26] utilizationFail 0
scalar OsgEarthNet.uav[26] simulationTime 259200
scalar OsgEarthNet.uav[27] utilizationSecMission 4549.767813339
scalar OsgEarthNet.uav[27] utilizationSecMaintenance 3413.9104179494
scalar OsgEarthNet.uav[27] utilizationSecCharge 29580
scalar OsgEarthNet.uav[27] utilizationSecIdle 221656.32076871
scalar OsgEarthNet.uav[27] utilizationEnergyMission 21252.480278015
scalar OsgEarthNet.uav[27] utilizationEnergyMaintenance 15946.292541504
scalar OsgEarthNet.uav[27] utilizationEnergyCharge 37198.773925781
scalar OsgEarthNet.uav[27] utilizationEnergyOverdrawMission 0
scalar OsgEarthNet.uav[27] utilizationEnergyOverdrawMaintenance 0
scalar OsgEarthNet.uav[27] utilizationCountMissions 8
scalar OsgEarthNet.uav[27] utilizationCountManeuversMission 74
scalar OsgEarthNet.uav[27] utilizationCountManeuversMaintenance 16
scalar OsgEarthNet.uav[27] utilizationCountChargeState 8
scalar OsgEarthNet.uav[27] utilizationCountOverdrawnAfterMission 0
scalar OsgEarthNet.uav[27] utilizationCountIdleState 9
scalar OsgEarthNet.uav[27] utilizationFail 0
scalar OsgEarthNet.uav[27] simulationTime 259200
scalar OsgEarthNet.uav[28] utilizationSecMission 29609.855689301
scalar OsgEarthNet.uav[28] utilizationSecMaintenance 17475.314282333
scalar OsgEarthNet.uav[28] utilizationSecCharge 171387.37876434
scalar OsgEarthNet.uav[28] utilizationSecIdle 40727.450264031
scalar OsgEarthNet.uav[28] utilizationEnergyMission 137344.92814636
scalar OsgEarthNet.uav[28] utilizationEnergyMaintenance 81476.69380188
scalar OsgEarthNet.uav[28] utilizationEnergyCharge 216650.36669922
scalar OsgEarthNet.uav[28] utilizationEnergyOverdrawMission 0
scalar OsgEarthNet.uav[28] utilizationEnergyOverdrawMaintenance 0
scalar OsgEarthNet.uav[28] utilizationCountMissions 47
scalar OsgEarthNet.uav[28] utilizationCountManeuversMission 478
scalar OsgEarthNet.uav[28] utilizationCountManeuversMaintenance 94
scalar OsgEarthNet.uav[28] utilizationCountChargeState 47
scalar OsgEarthNet.uav[28] utilizationCountOverdrawnAfterMission 0
scalar OsgEarthNet.uav[28] utilizationCountIdleState 47
scalar OsgEarthNet.uav[28] utilizationFail 0
scalar OsgEarthNet.uav[28] simulationTime 259200
scalar OsgEarthNet.uav[29] utilizationSecMission 557.08549766445
scalar OsgEarthNet.uav[29] utilizationSecMaintenance 423.57904092458
scalar OsgEarthNet.uav[29] utilizationSecCharge 3660
scalar OsgEarthNet.uav[29] utilizationSecIdle 254559.33446141
scalar OsgEarthNet.uav[29] utilizationEnergyMission 2307.3928985596
scalar OsgEarthNet.uav[29] utilizationEnergyMaintenance 2062.8203964233
scalar OsgEarthNet.uav[29] utilizationEnergyCharge 4543.3193359375
scalar OsgEarthNet.uav[29] utilizationEnergyOverdrawMission 0
scalar OsgEarthNet.uav[29] utilizationEnergyOverdrawMaintenance 0
scalar OsgEarthNet.uav[29] utilizationCountMissions 1
scalar OsgEarthNet.uav[29] utilizationCountManeuversMission 9
scalar OsgEarthNet.uav[29] utilizationCountManeuversMaintenance 2
scalar OsgEarthNet.uav[29] utilizationCountChargeState 1
scalar OsgEarthNet.uav[29] utilizationCountOverdrawnAfterMission 0
scalar OsgEarthNet.uav[29] utilizationCountIdleState 2
scalar OsgEarthNet.uav[29] utilizationFail 0
scalar OsgEarthNet.uav[29] simulationTime 259200
scalar OsgEarthNet.uav[30] utilizationSecMission 574.46784406449
scalar OsgEarthNet.uav[30] utilizationSecMaintenance 438.99680222315
scalar OsgEarthNet.uav[30] utilizationSecCharge 3800
scalar OsgEarthNet.uav[30] utilizationSecIdle 254386.53435371
scalar OsgEarthNet.uav[30] utilizationEnergyMission 2751.1536254883
scalar OsgEarthNet.uav[30] utilizationEnergyMaintenance 1989.6532096863
scalar OsgEarthNet.uav[30] utilizationEnergyCharge 4785.1767578125
scalar OsgEarthNet.uav[30] utilizationEnergyOverdrawMission 0
scalar OsgEarthNet.uav[30] utilizationEnergyOverdrawMaintenance 0
scalar OsgEarthNet.uav[30] utilizationCountMissions 1
scalar OsgEarthNet.uav[30] utilizationCountManeuversMission 9
scalar OsgEarthNet.uav[30] utilizationCountManeuversMaintenance 2
scalar OsgEarthNet.uav[30] utilizationCountChargeState 1
scalar OsgEarthNet.uav[30] utilizationCountOverdrawnAfterMission 0
scalar OsgEarthNet.uav[30] utilizationCountIdleState 2
scalar OsgEarthNet.uav[30] utilizationFail 0
scalar OsgEarthNet.uav[30] simulationTime 259200
scalar OsgEarthNet.uav[31] utilizationSecMission 27411.654539318
scalar OsgEarthNet.uav[31] utilizationSecMaintenance 14796.290767362
scalar OsgEarthNet.uav[31] utilizationSecCharge 154870
scalar OsgEarthNet.uav[31] utilizationSecIdle 62122.05369332
scalar OsgEarthNet.uav[31] utilizationEnergyMission 126772.01085663
scalar OsgEarthNet.uav[31] utilizationEnergyMaintenance 67626.016300201
scalar OsgEarthNet.uav[31] utilizationEnergyCharge 194895.82104492
scalar OsgEarthNet.uav[31] utilizationEnergyOverdrawMission 0
scalar OsgEarthNet.uav[31] utilizationEnergyOverdrawMaintenance 0
scalar OsgEarthNet.uav[31] utilizationCountMissions 42
scalar OsgEarthNet.uav[31] utilizationCountManeuversMission 431
scalar OsgEarthNet.uav[31] utilizationCountManeuversMaintenance 84
scalar OsgEarthNet.uav[31] utilizationCountChargeState 42
scalar OsgEarthNet.uav[31] utilizationCountOverdrawnAfterMission 0
scalar OsgEarthNet.uav[31] utilizationCountIdleState 43
scalar OsgEarthNet.uav[31] utilizationFail 0
scalar OsgEarthNet.uav[31] simulationTime 259200
scalar OsgEarthNet.uav[32] utilizationSecMission 18828.373382625
scalar OsgEarthNet.uav[32] utilizationSecMaintenance 13729.7376266
scalar OsgEarthNet.uav[32] utilizationSecCharge 119752.25691011
scalar OsgEarthNet.uav[32] utilizationSecIdle 106889.63108067
scalar OsgEarthNet.uav[32] utilizationEnergyMission 87742.063392639
scalar OsgEarthNet.uav[32] utilizationEnergyMaintenance 63985.583770752
scalar OsgEarthNet.uav[32] utilizationEnergyCharge 151244.65380859
scalar OsgEarthNet.uav[32] utilizationEnergyOverdrawMission 0
scalar OsgEarthNet.uav[32] utilizationEnergyOverdrawMaintenance 0
scalar OsgEarthNet.uav[32] utilizationCountMissions 33
scalar OsgEarthNet.uav[32] utilizationCountManeuversMission 302
scalar OsgEarthNet.uav[32] utilizationCountManeuversMaintenance 66
scalar OsgEarthNet.uav[32] utilizationCountChargeState 33
scalar OsgEarthNet.uav[32] utilizationCountOverdrawnAfterMission 0
scalar OsgEarthNet.uav[32] utilizationCountIdleState 33
scalar OsgEarthNet.uav[32] utilizationFail 0
scalar OsgEarthNet.uav[32] simulationTime 259200
scalar OsgEarthNet.uav[33] utilizationSecMission 13480.598649434
scalar OsgEarthNet.uav[33] utilizationSecMaintenance 7721.6251676697
scalar OsgEarthNet.uav[33] utilizationSecCharge 75100
scalar OsgEarthNet.uav[33] utilizationSecIdle 162897.7751829
scalar OsgEarthNet.uav[33] utilizationEnergyMission 62120.8005822
scalar OsgEarthNet.uav[33] utilizationEnergyMaintenance 35479.851539612
scalar OsgEarthNet.uav[33] utilizationEnergyCharge 93493.445556641
scalar OsgEarthNet.uav[33] utilizationEnergyOverdrawMission 0
scalar OsgEarthNet.uav[33] utilizationEnergyOverdrawMaintenance 0
scalar OsgEarthNet.uav[33] utilizationCountMissions 21
scalar OsgEarthNet.uav[33] utilizationCountManeuversMission 218
scalar OsgEarthNet.uav[33] utilizationCountManeuversMaintenance 43
scalar OsgEarthNet.uav[33] utilizationCountChargeState 21
scalar OsgEarthNet.uav[33] utilizationCountOverdrawnAfterMission 0
scalar OsgEarthNet.uav[33] utilizationCountIdleState 22
scalar OsgEarthNet.uav[33] utilizationFail 0
scalar OsgEarthNet.uav[33] simulationTime 259200
scalar OsgEarthNet.uav[34] utilizationSecMission 27799.977461299
scalar OsgEarthNet.uav[34] utilizationSecMaintenance 19583.597610633
scalar OsgEarthNet.uav[34] utilizationSecCharge 175028.07129927
scalar OsgEarthNet.uav[34] utilizationSecIdle 36788.352628794
scalar OsgEarthNet.uav[34] utilizationEnergyMission 127610.86721039
scalar OsgEarthNet.uav[34] utilizationEnergyMaintenance 91906.682994843
scalar OsgEarthNet.uav[34] utilizationEnergyCharge 219822.46679688
scalar OsgEarthNet.uav[34] utilizationEnergyOverdrawMission 0
scalar OsgEarthNet.uav[34] utilizationEnergyOverdrawMaintenance 0
scalar OsgEarthNet.uav[34] utilizationCountMissions 48
scalar OsgEarthNet.uav[34] utilizationCountManeuversMission 460
scalar OsgEarthNet.uav[34] utilizationCountManeuversMaintenance 96
scalar OsgEarthNet.uav[34] utilizationCountChargeState 48
scalar OsgEarthNet.uav[34] utilizationCountOverdrawnAfterMission 0
scalar OsgEarthNet.uav[34] utilizationCountIdleState 48
scalar OsgEarthNet.uav[34] utilizationFail 0
scalar OsgEarthNet.uav[34] simulationTime 259200
scalar OsgEarthNet.uav[35] utilizationSecMission 4665.4522298316
scalar OsgEarthNet.uav[35] utilizationSecMaintenance 2194.901260486
scalar OsgEarthNet.uav[35] utilizationSecCharge 25250
scalar OsgEarthNet.uav[35] utilizationSecIdle 227089.64550968
scalar OsgEarthNet.uav[35] utilizationEnergyMission 21140.461013794
scalar OsgEarthNet.uav[35] utilizationEnergyMaintenance 10383.96931839
scalar OsgEarthNet.uav[35] utilizationEnergyCharge 31524.429443359
scalar OsgEarthNet.uav[35] utilizationEnergyOverdrawMission 0
scalar OsgEarthNet.uav[35] utilizationEnergyOverdrawMaintenance 0
scalar OsgEarthNet.uav[35] utilizationCountMissions 7
scalar OsgEarthNet.uav[35] utilizationCountManeuversMission 71
scalar OsgEarthNet.uav[35] utilizationCountManeuversMaintenance 14
scalar OsgEarthNet.uav[35] utilizationCountChargeState 7
scalar OsgEarthNet.uav[35] utilizationCountOverdrawnAfterMission 0
scalar OsgEarthNet.uav[35] utilizationCountIdleState 8
scalar OsgEarthNet.uav[35] utilizationFail 0
scalar OsgEarthNet.uav[35] simulationTime 259200
scalar OsgEarthNet.uav[36] utilizationSecMission 29825.898254785
scalar OsgEarthNet.uav[36] utilizationSecMaintenance 18308.601097833
scalar OsgEarthNet.uav[36] utilizationSecCharge 176423.49964738
scalar OsgEarthNet.uav[36] utilizationSecIdle 34642
scalar OsgEarthNet.uav[36] utilizationEnergyMission 137871.99246597
scalar OsgEarthNet.uav[36] utilizationEnergyMaintenance 84011.224815369
scalar OsgEarthNet.uav[36] utilizationEnergyCharge 221557.10449219
scalar OsgEarthNet.uav[36] utilizationEnergyOverdrawMission 0
scalar OsgEarthNet.uav[36] utilizationEnergyOverdrawMaintenance 0
scalar OsgEarthNet.uav[36] utilizationCountMissions 49
scalar OsgEarthNet.uav[36] utilizationCountManeuversMission 497
scalar OsgEarthNet.uav[36] utilizationCountManeuversMaintenance 97
scalar OsgEarthNet.uav[36] utilizationCountChargeState 49
scalar OsgEarthNet.uav[36] utilizationCountOverdrawnAfterMission 0
scalar OsgEarthNet.uav[36] utilizationCountIdleState 49
scalar OsgEarthNet.uav[36] utilizationFail 0
scalar OsgEarthNet.uav[36] simulationTime 259200
scalar OsgEarthNet.uav[37] utilizationSecMission 8105.9570806889
scalar OsgEarthNet.uav[37] utilizationSecMaintenance 6667.8726737891
scalar OsgEarthNet.uav[37] utilizationSecCharge 54460
scalar OsgEarthNet.uav[37] utilizationSecIdle 189966.16924552
scalar OsgEarthNet.uav[37] utilizationEnergyMission 36977.409393311
scalar OsgEarthNet.uav[37] utilizationEnergyMaintenance 31347.764560699
scalar OsgEarthNet.uav[37] utilizationEnergyCharge 68224.967773438
scalar OsgEarthNet.uav[37] utilizationEnergyOverdrawMission 0
scalar OsgEarthNet.uav[37] utilizationEnergyOverdrawMaintenance 0
scalar OsgEarthNet.uav[37] utilizationCountMissions 15
scalar OsgEarthNet.uav[37] utilizationCountManeuversMission 137
scalar OsgEarthNet.uav[37] utilizationCountManeuversMaintenance 30
scalar OsgEarthNet.uav[37] utilizationCountChargeState 15
scalar OsgEarthNet.uav[37] utilizationCountOverdrawnAfterMission 0
scalar OsgEarthNet.uav[37] utilizationCountIdleState 16
scalar OsgEarthNet.uav[37] utilizationFail 0
scalar OsgEarthNet.uav[37] simulationTime 259200
scalar OsgEarthNet.uav[38] utilizationSecMission 1366.5997468304
scalar OsgEarthNet.uav[38] utilizationSecMaintenance 705.22203625398
scalar OsgEarthNet.uav[38] utilizationSecCharge 7300
scalar OsgEarthNet.uav[38] utilizationSecIdle 249828.17721692
scalar OsgEarthNet.uav[38] utilizationEnergyMission 5871.2159423828
scalar OsgEarthNet.uav[38] utilizationEnergyMaintenance 3062.6968269348
scalar OsgEarthNet.uav[38] utilizationEnergyCharge 9134.3793945312
scalar OsgEarthNet.uav[38] utilizationEnergyOverdrawMission 0
scalar OsgEarthNet.uav[38] utilizationEnergyOverdrawMaintenance 0
scalar OsgEarthNet.uav[38] utilizationCountMissions 2
scalar OsgEarthNet.uav[38] utilizationCountManeuversMission 21
scalar OsgEarthNet.uav[38] utilizationCountManeuversMaintenance 4
scalar OsgEarthNet.uav[38] utilizationCountChargeState 2
scalar OsgEarthNet.uav[38] utilizationCountOverdrawnAfterMission 0
scalar OsgEarthNet.uav[38] utilizationCountIdleState 3
scalar OsgEarthNet.uav[38] utilizationFail 0
scalar OsgEarthNet.uav[38] simulationTime 259200
scalar OsgEarthNet.uav[39] utilizationSecMission 6891.3781948673
scalar OsgEarthNet.uav[39] utilizationSecMaintenance 3803.3316864445
scalar OsgEarthNet.uav[39] utilizationSecCharge 39680
scalar OsgEarthNet.uav[39] utilizationSecIdle 208825.28911869
scalar OsgEarthNet.uav[39] utilizationEnergyMission 32192.13993454
scalar OsgEarthNet.uav[39] utilizationEnergyMaintenance 17368.700942993
scalar OsgEarthNet.uav[39] utilizationEnergyCharge 49588.644042969
scalar OsgEarthNet.uav[39] utilizationEnergyOverdrawMission 0
scalar OsgEarthNet.uav[39] utilizationEnergyOverdrawMaintenance 0
scalar OsgEarthNet.uav[39] utilizationCountMissions 11
scalar OsgEarthNet.uav[39] utilizationCountManeuversMission 118
scalar OsgEarthNet.uav[39] utilizationCountManeuversMaintenance 22
scalar OsgEarthNet.uav[39] utilizationCountChargeState 11
scalar OsgEarthNet.uav[39] utilizationCountOverdrawnAfterMission 0
scalar OsgEarthNet.uav[39] utilizationCountIdleState 12
scalar OsgEarthNet.uav[39] utilizationFail 0
scalar OsgEarthNet.uav[39] simulationTime 259200
scalar OsgEarthNet.uav[40] utilizationSecMission 650.68693590098
scalar OsgEarthNet.uav[40] utilizationSecMaintenance 350.31285707965
scalar OsgEarthNet.uav[40] utilizationSecCharge 3710
scalar OsgEarthNet.uav[40] utilizationSecIdle 254488.99920702
scalar OsgEarthNet.uav[40] utilizationEnergyMission 3005.4354095459
scalar OsgEarthNet.uav[40] utilizationEnergyMaintenance 1618.7438278198
scalar OsgEarthNet.uav[40] utilizationEnergyCharge 4624.181640625
scalar OsgEarthNet.uav[40] utilizationEnergyOverdrawMission 0
scalar OsgEarthNet.uav[40] utilizationEnergyOverdrawMaintenance 0
scalar OsgEarthNet.uav[40] utilizationCountMissions 1
scalar OsgEarthNet.uav[40] utilizationCountManeuversMission 9
scalar OsgEarthNet.uav[40] utilizationCountManeuversMaintenance 2
scalar OsgEarthNet.uav[40] utilizationCountChargeState 1
scalar OsgEarthNet.uav[40] utilizationCountOverdrawnAfterMission 0
scalar OsgEarthNet.uav[40] utilizationCountIdleState 2
scalar OsgEarthNet.uav[40] utilizationFail 0
scalar OsgEarthNet.uav[40] simulationTime 259200
scalar OsgEarthNet.uav[41] utilizationSecMission 25295.597793918
scalar OsgEarthNet.uav[41] utilizationSecMaintenance 11980.271382675
scalar OsgEarthNet.uav[41] utilizationSecCharge 138170
scalar OsgEarthNet.uav[41] utilizationSecIdle 83754.129823407
scalar OsgEarthNet.uav[41] utilizationEnergyMission 116817.10932159
scalar OsgEarthNet.uav[41] utilizationEnergyMaintenance 55705.211402893
scalar OsgEarthNet.uav[41] utilizationEnergyCharge 173172.53857422
scalar OsgEarthNet.uav[41] utilizationEnergyOverdrawMission 0
scalar OsgEarthNet.uav[41] utilizationEnergyOverdrawMaintenance 0
scalar OsgEarthNet.uav[41] utilizationCountMissions 38
scalar OsgEarthNet.uav[41] utilizationCountManeuversMission 404
scalar OsgEarthNet.uav[41] utilizationCountManeuversMaintenance 76
scalar OsgEarthNet.uav[41] utilizationCountChargeState 38
scalar OsgEarthNet.uav[41] utilizationCountOverdrawnAfterMission 0
scalar OsgEarthNet.uav[41] utilizationCountIdleState 39
scalar OsgEarthNet.uav[41] utilizationFail 0
scalar OsgEarthNet.uav[41] simulationTime 259200
scalar OsgEarthNet.uav[42] utilizationSecMission 14536.072220579
scalar OsgEarthNet.uav[42] utilizationSecMaintenance 11974.753724386
scalar OsgEarthNet.uav[42] utilizationSecCharge 95988.464997668
scalar OsgEarthNet.uav[42] utilizationSecIdle 136700.70805737
scalar OsgEarthNet.uav[42] utilizationEnergyMission 66751.227058411
scalar OsgEarthNet.uav[42] utilizationEnergyMaintenance 54779.614364624
scalar OsgEarthNet.uav[42] utilizationEnergyCharge 120869.98535156
scalar OsgEarthNet.uav[42] utilizationEnergyOverdrawMission 0
scalar OsgEarthNet.uav[42] utilizationEnergyOverdrawMaintenance 0
scalar OsgEarthNet.uav[42] utilizationCountMissions 27
scalar OsgEarthNet.uav[42] utilizationCountManeuversMission 248
scalar OsgEarthNet.uav[42] utilizationCountManeuversMaintenance 54
scalar OsgEarthNet.uav[42] utilizationCountChargeState 27
scalar OsgEarthNet.uav[42] utilizationCountOverdrawnAfterMission 0
scalar OsgEarthNet.uav[42] utilizationCountIdleState 27
scalar OsgEarthNet.uav[42] utilizationFail 0
scalar OsgEarthNet.uav[42] simulationTime 259200
scalar OsgEarthNet.uav[43] utilizationSecMission 27043.645755899
scalar OsgEarthNet.uav[43] utilizationSecMaintenance 21124.839583152
scalar OsgEarthNet.uav[43] utilizationSecCharge 175970
scalar OsgEarthNet.uav[43] utilizationSecIdle 35061.51366095
scalar OsgEarthNet.uav[43] utilizationEnergyMission 125914.44223785
scalar OsgEarthNet.uav[43] utilizationEnergyMaintenance 97197.74283444
scalar OsgEarthNet.uav[43] utilizationEnergyCharge 220789.41503906
scalar OsgEarthNet.uav[43] utilizationEnergyOverdrawMission 0
scalar OsgEarthNet.uav[43] utilizationEnergyOverdrawMaintenance 0
scalar OsgEarthNet.uav[43] utilizationCountMissions 48
scalar OsgEarthNet.uav[43] utilizationCountManeuversMission 459
scalar OsgEarthNet.uav[43] utilizationCountManeuversMaintenance 97
scalar OsgEarthNet.uav[43] utilizationCountChargeState 48
scalar OsgEarthNet.uav[43] utilizationCountOverdrawnAfterMission 0
scalar OsgEarthNet.uav[43] utilizationCountIdleState 49
scalar OsgEarthNet.uav[43] utilizationFail 0
scalar OsgEarthNet.uav[43] simulationTime 259200
scalar OsgEarthNet.uav[44] utilizationSecMission 26868.857826585
scalar OsgEarthNet.uav[44] utilizationSecMaintenance 20674.766103604
scalar OsgEarthNet.uav[44] utilizationSecCharge 174799.05996206
scalar OsgEarthNet.uav[44] utilizationSecIdle 36857.315107746
scalar OsgEarthNet.uav[44] utilizationEnergyMission 123835.31259537
scalar OsgEarthNet.uav[44] utilizationEnergyMaintenance 95784.459819794
scalar OsgEarthNet.uav[44] utilizationEnergyCharge 219522.6171875
scalar OsgEarthNet.uav[44] utilizationEnergyOverdrawMission 0
scalar OsgEarthNet.uav[44] utilizationEnergyOverdrawMaintenance 0
scalar OsgEarthNet.uav[44] utilizationCountMissions 48
scalar OsgEarthNet.uav[44] utilizationCountManeuversMission 447
scalar OsgEarthNet.uav[44] utilizationCountManeuversMaintenance 96
scalar OsgEarthNet.uav[44] utilizationCountChargeState 48
scalar OsgEarthNet.uav[44] utilizationCountOverdrawnAfterMission 0
scalar OsgEarthNet.uav[44] utilizationCountIdleState 48
scalar OsgEarthNet.uav[44] utilizationFail 0
scalar OsgEarthNet.uav[44] simulationTime 259200
scalar OsgEarthNet.uav[45] utilizationSecMission 11953.143647238
scalar OsgEarthNet.uav[45] utilizationSecMaintenance 6913.4777021182
scalar OsgEarthNet.uav[45] utilizationSecCharge 66238.666898453
scalar OsgEarthNet.uav[45] utilizationSecIdle 174094.71075219
scalar OsgEarthNet.uav[45] utilizationEnergyMission 54157.335075378
scalar OsgEarthNet.uav[45] utilizationEnergyMaintenance 32501.261207581
scalar OsgEarthNet.uav[45] utilizationEnergyCharge 83287.220947266
scalar OsgEarthNet.uav[45] utilizationEnergyOverdrawMission 0
scalar OsgEarthNet.uav[45] utilizationEnergyOverdrawMaintenance 0
scalar OsgEarthNet.uav[45] utilizationCountMissions 19
scalar OsgEarthNet.uav[45] utilizationCountManeuversMission 192
scalar OsgEarthNet.uav[45] utilizationCountManeuversMaintenance 38
scalar OsgEarthNet.uav[45] utilizationCountChargeState 19
scalar OsgEarthNet.uav[45] utilizationCountOverdrawnAfterMission 0
scalar OsgEarthNet.uav[45] utilizationCountIdleState 19
scalar OsgEarthNet.uav[45] utilizationFail 0
scalar OsgEarthNet.uav[45] simulationTime 259200
scalar OsgEarthNet.uav[46] utilizationSecMission 26314.104179736
scalar OsgEarthNet.uav[46] utilizationSecMaintenance 17168.465689834
scalar OsgEarthNet.uav[46] utilizationSecCharge 160710
scalar OsgEarthNet.uav[46] utilizationSecIdle 55007.42913043
scalar OsgEarthNet.uav[46] utilizationEnergyMission 120559.34425735
scalar OsgEarthNet.uav[46] utilizationEnergyMaintenance 80329.355041504
scalar OsgEarthNet.uav[46] utilizationEnergyCharge 201498.05395508
scalar OsgEarthNet.uav[46] utilizationEnergyOverdrawMission 0
scalar OsgEarthNet.uav[46] utilizationEnergyOverdrawMaintenance 0
scalar OsgEarthNet.uav[46] utilizationCountMissions 44
scalar OsgEarthNet.uav[46] utilizationCountManeuversMission 425
scalar OsgEarthNet.uav[46] utilizationCountManeuversMaintenance 88
scalar OsgEarthNet.uav[46] utilizationCountChargeState 44
scalar OsgEarthNet.uav[46] utilizationCountOverdrawnAfterMission 0
scalar OsgEarthNet.uav[46] utilizationCountIdleState 45
scalar OsgEarthNet.uav[46] utilizationFail 0
scalar OsgEarthNet.uav[46] simulationTime 259200
scalar OsgEarthNet.uav[47] utilizationSecMission 29859.215661049
scalar OsgEarthNet.uav[47] utilizationSecMaintenance 19026.171449434
scalar OsgEarthNet.uav[47] utilizationSecCharge 177220
scalar OsgEarthNet.uav[47] utilizationSecIdle 33094.611889516
scalar OsgEarthNet.uav[47] utilizationEnergyMission 137994.35886383
scalar OsgEarthNet.uav[47] utilizationEnergyMaintenance 87074.429753542
scalar OsgEarthNet.uav[47] utilizationEnergyCharge 221489.66210938
scalar OsgEarthNet.uav[47] utilizationEnergyOverdrawMission 0
scalar OsgEarthNet.uav[47] utilizationEnergyOverdrawMaintenance 0
scalar OsgEarthNet.uav[47] utilizationCountMissions 49
scalar OsgEarthNet.uav[47] utilizationCountManeuversMission 489
scalar OsgEarthNet.uav[47] utilizationCountManeuversMaintenance 99
scalar OsgEarthNet.uav[47] utilizationCountChargeState 49
scalar OsgEarthNet.uav[47] utilizationCountOverdrawnAfterMission 0
scalar OsgEarthNet.uav[47] utilizationCountIdleState 50
scalar OsgEarthNet.uav[47] utilizationFail 0
scalar OsgEarthNet.uav[47] simulationTime 259200
scalar OsgEarthNet.uav[48] utilizationSecMission 29906.55238097
scalar OsgEarthNet.uav[48] utilizationSecMaintenance 17058.907558486
scalar OsgEarthNet.uav[48] utilizationSecCharge 169355.36395013
scalar OsgEarthNet.uav[48] utilizationSecIdle 42879.175110411
scalar OsgEarthNet.uav[48] utilizationEnergyMission 138277.32216644
scalar OsgEarthNet.uav[48] utilizationEnergyMaintenance 79141.583240509
scalar OsgEarthNet.uav[48] utilizationEnergyCharge 212958.28100586
scalar OsgEarthNet.uav[48] utilizationEnergyOverdrawMission 0
scalar OsgEarthNet.uav[48] utilizationEnergyOverdrawMaintenance 0
scalar OsgEarthNet.uav[48] utilizationCountMissions 47
scalar OsgEarthNet.uav[48] utilizationCountManeuversMission 498
scalar OsgEarthNet.uav[48] utilizationCountManeuversMaintenance 94
scalar OsgEarthNet.uav[48] utilizationCountChargeState 47
scalar OsgEarthNet.uav[48] utilizationCountOverdrawnAfterMission 0
scalar OsgEarthNet.uav[48] utilizationCountIdleState 47
scalar OsgEarthNet.uav[48] utilizationFail 0
scalar OsgEarthNet.uav[48] simulationTime 259200
scalar OsgEarthNet.uav[49] utilizationSecMission 3184.5038958808
scalar OsgEarthNet.uav[49] utilizationSecMaintenance 2562.4193680689
scalar OsgEarthNet.uav[49] utilizationSecCharge 21330
scalar OsgEarthNet.uav[49] utilizationSecIdle 232123.07573605
scalar OsgEarthNet.uav[49] utilizationEnergyMission 14593.12802887
scalar OsgEarthNet.uav[49] utilizationEnergyMaintenance 11830.840045929
scalar OsgEarthNet.uav[49] utilizationEnergyCharge 26553.913574219
scalar OsgEarthNet.uav[49] utilizationEnergyOverdrawMission 0
scalar OsgEarthNet.uav[49] utilizationEnergyOverdrawMaintenance 0
scalar OsgEarthNet.uav[49] utilizationCountMissions 6
scalar OsgEarthNet.uav[49] utilizationCountManeuversMission 54
scalar OsgEarthNet.uav[49] utilizationCountManeuversMaintenance 12
scalar OsgEarthNet.uav[49] utilizationCountChargeState 6
scalar OsgEarthNet.uav[49] utilizationCountOverdrawnAfterMission 0
scalar OsgEarthNet.uav[49] utilizationCountIdleState 7
scalar OsgEarthNet.uav[49] utilizationFail 0
scalar OsgEarthNet.uav[49] simulationTime 259200
scalar OsgEarthNet.uav[50] utilizationSecMission 23423.694028833
scalar OsgEarthNet.uav[50] utilizationSecMaintenance 18869.132165694
scalar OsgEarthNet.uav[50] utilizationSecCharge 156681.90223136
scalar OsgEarthNet.uav[50] utilizationSecIdle 60225.270574118
scalar OsgEarthNet.uav[50] utilizationEnergyMission 109680.32202148
scalar OsgEarthNet.uav[50] utilizationEnergyMaintenance 87647.649406433
scalar OsgEarthNet.uav[50] utilizationEnergyCharge 197453.63427734
scalar OsgEarthNet.uav[50] utilizationEnergyOverdrawMission 0
scalar OsgEarthNet.uav[50] utilizationEnergyOverdrawMaintenance 0
scalar OsgEarthNet.uav[50] utilizationCountMissions 43
scalar OsgEarthNet.uav[50] utilizationCountManeuversMission 388
scalar OsgEarthNet.uav[50] utilizationCountManeuversMaintenance 86
scalar OsgEarthNet.uav[50] utilizationCountChargeState 43
scalar OsgEarthNet.uav[50] utilizationCountOverdrawnAfterMission 0
scalar OsgEarthNet.uav[50] utilizationCountIdleState 43
scalar OsgEarthNet.uav[50] utilizationFail 0
scalar OsgEarthNet.uav[50] simulationTime 259200
scalar OsgEarthNet.uav[51] utilizationSecMission 26223.706521016
scalar OsgEarthNet.uav[51] utilizationSecMaintenance 18376.561457192
scalar OsgEarthNet.uav[51] utilizationSecCharge 161727.64379898
scalar OsgEarthNet.uav[51] utilizationSecIdle 52872.087222815
scalar OsgEarthNet.uav[51] utilizationEnergyMission 120609.35945129
scalar OsgEarthNet.uav[51] utilizationEnergyMaintenance 85922.107009888
scalar OsgEarthNet.uav[51] utilizationEnergyCharge 203521.81860352
scalar OsgEarthNet.uav[51] utilizationEnergyOverdrawMission 0
scalar OsgEarthNet.uav[51] utilizationEnergyOverdrawMaintenance 0
scalar OsgEarthNet.uav[51] utilizationCountMissions 45
scalar OsgEarthNet.uav[51] utilizationCountManeuversMission 433
scalar OsgEarthNet.uav[51] utilizationCountManeuversMaintenance 90
scalar OsgEarthNet.uav[51] utilizationCountChargeState 45
scalar OsgEarthNet.uav[51] utilizationCountOverdrawnAfterMission 0
scalar OsgEarthNet.uav[51] utilizationCountIdleState 45
scalar OsgEarthNet.uav[51] utilizationFail 0
scalar OsgEarthNet.uav[51] simulationTime 259200
scalar OsgEarthNet.uav[52] utilizationSecMission 29007.468233373
scalar OsgEarthNet.uav[52] utilizationSecMaintenance 17569.828098909
scalar OsgEarthNet.uav[52] utilizationSecCharge 167470
scalar OsgEarthNet.uav[52] utilizationSecIdle 45152.702667718
scalar OsgEarthNet.uav[52] utilizationEnergyMission 133046.55902863
scalar OsgEarthNet.uav[52] utilizationEnergyMaintenance 80586.251774324
scalar OsgEarthNet.uav[52] utilizationEnergyCharge 209749.04736328
scalar OsgEarthNet.uav[52] utilizationEnergyOverdrawMission 0
scalar OsgEarthNet.uav[52] utilizationEnergyOverdrawMaintenance 0
scalar OsgEarthNet.uav[52] utilizationCountMissions 47
scalar OsgEarthNet.uav[52] utilizationCountManeuversMission 467
scalar OsgEarthNet.uav[52] utilizationCountManeuversMaintenance 94
scalar OsgEarthNet.uav[52] utilizationCountChargeState 46
scalar OsgEarthNet.uav[52] utilizationCountOverdrawnAfterMission 0
scalar OsgEarthNet.uav[52] utilizationCountIdleState 47
scalar OsgEarthNet.uav[52] utilizationFail 0
scalar OsgEarthNet.uav[52] simulationTime 259200
scalar OsgEarthNet.uav[53] utilizationSecMission 29758.866372761
scalar OsgEarthNet.uav[53] utilizationSecMaintenance 16820.020127859
scalar OsgEarthNet.uav[53] utilizationSecCharge 170840
scalar OsgEarthNet.uav[53] utilizationSecIdle 41781.11249938
scalar OsgEarthNet.uav[53] utilizationEnergyMission 136677.4310379
scalar OsgEarthNet.uav[53] utilizationEnergyMaintenance 77512.22920227
scalar OsgEarthNet.uav[53] utilizationEnergyCharge 213834.42236328
scalar OsgEarthNet.uav[53] utilizationEnergyOverdrawMission 0
scalar OsgEarthNet.uav[53] utilizationEnergyOverdrawMaintenance 0
scalar OsgEarthNet.uav[53] utilizationCountMissions 47
scalar OsgEarthNet.uav[53] utilizationCountManeuversMission 479
scalar OsgEarthNet.uav[53] utilizationCountManeuversMaintenance 94
scalar OsgEarthNet.uav[53] utilizationCountChargeState 47
scalar OsgEarthNet.uav[53] utilizationCountOverdrawnAfterMission 0
scalar OsgEarthNet.uav[53] utilizationCountIdleState 47
scalar OsgEarthNet.uav[53] utilizationFail 0
scalar OsgEarthNet.uav[53] simulationTime 259200
scalar OsgEarthNet.uav[54] utilizationSecMission 14160.079457013
scalar OsgEarthNet.uav[54] utilizationSecMaintenance 10320.246900655
scalar OsgEarthNet.uav[54] utilizationSecCharge 90500
scalar OsgEarthNet.uav[54] utilizationSecIdle 144219.67264233
scalar OsgEarthNet.uav[54] utilizationEnergyMission 65030.455196381
scalar OsgEarthNet.uav[54] utilizationEnergyMaintenance 48296.787517548
scalar OsgEarthNet.uav[54] utilizationEnergyCharge 113324.40576172
scalar OsgEarthNet.uav[54] utilizationEnergyOverdrawMission 0
scalar OsgEarthNet.uav[54] utilizationEnergyOverdrawMaintenance 0
scalar OsgEarthNet.uav[54] utilizationCountMissions 25
scalar OsgEarthNet.uav[54] utilizationCountManeuversMission 232
scalar OsgEarthNet.uav[54] utilizationCountManeuversMaintenance 50
scalar OsgEarthNet.uav[54] utilizationCountChargeState 25
scalar OsgEarthNet.uav[54] utilizationCountOverdrawnAfterMission 0
scalar OsgEarthNet.uav[54] utilizationCountIdleState 24
scalar OsgEarthNet.uav[54] utilizationFail 0
scalar OsgEarthNet.uav[54] simulationTime 259200
scalar OsgEarthNet.uav[55] utilizationSecMission 9728.1356279833
scalar OsgEarthNet.uav[55] utilizationSecMaintenance 6138.0980109788
scalar OsgEarthNet.uav[55] utilizationSecCharge 58640
scalar OsgEarthNet.uav[55] utilizationSecIdle 184693.76536104
scalar OsgEarthNet.uav[55] utilizationEnergyMission 45190.626146583
scalar OsgEarthNet.uav[55] utilizationEnergyMaintenance 28664.663555145
scalar OsgEarthNet.uav[55] utilizationEnergyCharge 73734.202636719
scalar OsgEarthNet.uav[55] utilizationEnergyOverdrawMission 0
scalar OsgEarthNet.uav[55] utilizationEnergyOverdrawMaintenance 0
scalar OsgEarthNet.uav[55] utilizationCountMissions 16
scalar OsgEarthNet.uav[55] utilizationCountManeuversMission 152
scalar OsgEarthNet.uav[55] utilizationCountManeuversMaintenance 31
scalar OsgEarthNet.uav[55] utilizationCountChargeState 16
scalar OsgEarthNet.uav[55] utilizationCountOverdrawnAfterMission 0
scalar OsgEarthNet.uav[55] utilizationCountIdleState 16
scalar OsgEarthNet.uav[55] utilizationFail 0
scalar OsgEarthNet.uav[55] simulationTime 259200
scalar OsgEarthNet.uav[56] utilizationSecMission 13273.350414999
scalar OsgEarthNet.uav[56] utilizationSecMaintenance 10891.377318245
scalar OsgEarthNet.uav[56] utilizationSecCharge 88320
scalar OsgEarthNet.uav[56] utilizationSecIdle 146715.27126676
scalar OsgEarthNet.uav[56] utilizationEnergyMission 61209.968315124
scalar OsgEarthNet.uav[56] utilizationEnergyMaintenance 50401.556564331
scalar OsgEarthNet.uav[56] utilizationEnergyCharge 111706.95703125
scalar OsgEarthNet.uav[56] utilizationEnergyOverdrawMission 0
scalar OsgEarthNet.uav[56] utilizationEnergyOverdrawMaintenance 141.96136474609
scalar OsgEarthNet.uav[56] utilizationCountMissions 24
scalar OsgEarthNet.uav[56] utilizationCountManeuversMission 216
scalar OsgEarthNet.uav[56] utilizationCountManeuversMaintenance 48
scalar OsgEarthNet.uav[56] utilizationCountChargeState 24
scalar OsgEarthNet.uav[56] utilizationCountOverdrawnAfterMission 1
scalar OsgEarthNet.uav[56] utilizationCountIdleState 23
scalar OsgEarthNet.uav[56] utilizationFail 0
scalar OsgEarthNet.uav[56] simulationTime 259200
scalar OsgEarthNet.uav[57] utilizationSecMission 18494.706814995
scalar OsgEarthNet.uav[57] utilizationSecMaintenance 11934.424656751
scalar OsgEarthNet.uav[57] utilizationSecCharge 111022.81141756
scalar OsgEarthNet.uav[57] utilizationSecIdle 117748.05611069
scalar OsgEarthNet.uav[57] utilizationEnergyMission 85509.679740906
scalar OsgEarthNet.uav[57] utilizationEnergyMaintenance 54504.96472168
scalar OsgEarthNet.uav[57] utilizationEnergyCharge 139943.29467773
scalar OsgEarthNet.uav[57] utilizationEnergyOverdrawMission 0
scalar OsgEarthNet.uav[57] utilizationEnergyOverdrawMaintenance 0
scalar OsgEarthNet.uav[57] utilizationCountMissions 31
scalar OsgEarthNet.uav[57] utilizationCountManeuversMission 296
scalar OsgEarthNet.uav[57] utilizationCountManeuversMaintenance 62
scalar OsgEarthNet.uav[57] utilizationCountChargeState 31
scalar OsgEarthNet.uav[57] utilizationCountOverdrawnAfterMission 0
scalar OsgEarthNet.uav[57] utilizationCountIdleState 29
scalar OsgEarthNet.uav[57] utilizationFail 0
scalar OsgEarthNet.uav[57] simulationTime 259200
scalar OsgEarthNet.uav[58] utilizationSecMission 22818.667128149
scalar OsgEarthNet.uav[58] utilizationSecMaintenance 14129.458467865
scalar OsgEarthNet.uav[58] utilizationSecCharge 135153.02524199
scalar OsgEarthNet.uav[58] utilizationSecIdle 87098.848161997
scalar OsgEarthNet.uav[58] utilizationEnergyMission 106242.295578
scalar OsgEarthNet.uav[58] utilizationEnergyMaintenance 65948.212333679
scalar OsgEarthNet.uav[58] utilizationEnergyCharge 171337.04296875
scalar OsgEarthNet.uav[58] utilizationEnergyOverdrawMission 0
scalar OsgEarthNet.uav[58] utilizationEnergyOverdrawMaintenance 0
scalar OsgEarthNet.uav[58] utilizationCountMissions 37
scalar OsgEarthNet.uav[58] utilizationCountManeuversMission 379
scalar OsgEarthNet.uav[58] utilizationCountManeuversMaintenance 74
scalar OsgEarthNet.uav[58] utilizationCountChargeState 37
scalar OsgEarthNet.uav[58] utilizationCountOverdrawnAfterMission 0
scalar OsgEarthNet.uav[58] utilizationCountIdleState 35
scalar OsgEarthNet.uav[58] utilizationFail 0
scalar OsgEarthNet.uav[58] simulationTime 259200
scalar OsgEarthNet.uav[59] utilizationSecMission 21961.531369635
scalar OsgEarthNet.uav[59] utilizationSecMaintenance 16632.553500032
scalar OsgEarthNet.uav[59] utilizationSecCharge 140901.1331573
scalar OsgEarthNet.uav[59] utilizationSecIdle 79704.780973032
scalar OsgEarthNet.uav[59] utilizationEnergyMission 100703.44263458
scalar OsgEarthNet.uav[59] utilizationEnergyMaintenance 76086.987827301
scalar OsgEarthNet.uav[59] utilizationEnergyCharge 176762.20654297
scalar OsgEarthNet.uav[59] utilizationEnergyOverdrawMission 0
scalar OsgEarthNet.uav[59] utilizationEnergyOverdrawMaintenance 0
scalar OsgEarthNet.uav[59] utilizationCountMissions 39
scalar OsgEarthNet.uav[59] utilizationCountManeuversMission 361
scalar OsgEarthNet.uav[59] utilizationCountManeuversMaintenance 78
scalar OsgEarthNet.uav[59] utilizationCountChargeState 39
scalar OsgEarthNet.uav[59] utilizationCountOverdrawnAfterMission 0
scalar OsgEarthNet.uav[59] utilizationCountIdleState 34
scalar OsgEarthNet.uav[59] utilizationFail 0
scalar OsgEarthNet.uav[59] simulationTime 259200
scalar OsgEarthNet.uav[60] utilizationSecMission 23791.753835001
scalar OsgEarthNet.uav[60] utilizationSecMaintenance 19733.480281969
scalar OsgEarthNet.uav[60] utilizationSecCharge 159158.86815672
scalar OsgEarthNet.uav[60] utilizationSecIdle 56515.896726312
scalar OsgEarthNet.uav[60] utilizationEnergyMission 109000.40215302
scalar OsgEarthNet.uav[60] utilizationEnergyMaintenance 91337.927780151
scalar OsgEarthNet.uav[60] utilizationEnergyCharge 200767.84887695
scalar OsgEarthNet.uav[60] utilizationEnergyOverdrawMission 0
scalar OsgEarthNet.uav[60] utilizationEnergyOverdrawMaintenance 0
scalar OsgEarthNet.uav[60] utilizationCountMissions 44
scalar OsgEarthNet.uav[60] utilizationCountManeuversMission 385
scalar OsgEarthNet.uav[60] utilizationCountManeuversMaintenance 88
scalar OsgEarthNet.uav[60] utilizationCountChargeState 44
scalar OsgEarthNet.uav[60] utilizationCountOverdrawnAfterMission 0
scalar OsgEarthNet.uav[60] utilizationCountIdleState 40
scalar OsgEarthNet.uav[60] utilizationFail 0
scalar OsgEarthNet.uav[60] simulationTime 259200
scalar OsgEarthNet.uav[61] utilizationSecMission 25317.147258599
scalar OsgEarthNet.uav[61] utilizationSecMaintenance 20906.893351752
scalar OsgEarthNet.uav[61] utilizationSecCharge 170340
scalar OsgEarthNet.uav[61] utilizationSecIdle 42635.958389649
scalar OsgEarthNet.uav[61] utilizationEnergyMission 118072.15815735
scalar OsgEarthNet.uav[61] utilizationEnergyMaintenance 97087.114944458
scalar OsgEarthNet.uav[61] utilizationEnergyCharge 214768.45874023
scalar OsgEarthNet.uav[61] utilizationEnergyOverdrawMission 0
scalar OsgEarthNet.uav[61] utilizationEnergyOverdrawMaintenance 0
scalar OsgEarthNet.uav[61] utilizationCountMissions 47
scalar OsgEarthNet.uav[61] utilizationCountManeuversMission 420
scalar OsgEarthNet.uav[61] utilizationCountManeuversMaintenance 94
scalar OsgEarthNet.uav[61] utilizationCountChargeState 47
scalar OsgEarthNet.uav[61] utilizationCountOverdrawnAfterMission 0
scalar OsgEarthNet.uav[61] utilizationCountIdleState 42
scalar OsgEarthNet.uav[61] utilizationFail 0
scalar OsgEarthNet.uav[61] simulationTime 259200
scalar OsgEarthNet.uav[62] utilizationSecMission 25503.657440565
scalar OsgEarthNet.uav[62] utilizationSecMaintenance 21360.318289231
scalar OsgEarthNet.uav[62] utilizationSecCharge 171340
scalar OsgEarthNet.uav[62] utilizationSecIdle 40996.023270204
scalar OsgEarthNet.uav[62] utilizationEnergyMission 116844.36517334
scalar OsgEarthNet.uav[62] utilizationEnergyMaintenance 98489.188532271
scalar OsgEarthNet.uav[62] utilizationEnergyCharge 215391.81713867
scalar OsgEarthNet.uav[62] utilizationEnergyOverdrawMission 0
scalar OsgEarthNet.uav[62] utilizationEnergyOverdrawMaintenance 0
scalar OsgEarthNet.uav[62] utilizationCountMissions 47
scalar OsgEarthNet.uav[62] utilizationCountManeuversMission 413
scalar OsgEarthNet.uav[62] utilizationCountManeuversMaintenance 95
scalar OsgEarthNet.uav[62] utilizationCountChargeState 47
scalar OsgEarthNet.uav[62] utilizationCountOverdrawnAfterMission 0
scalar OsgEarthNet.uav[62] utilizationCountIdleState 44
scalar OsgEarthNet.uav[62] utilizationFail 0
scalar OsgEarthNet.uav[62] simulationTime 259200
scalar OsgEarthNet.uav[63] utilizationSecMission 30177.863610958
scalar OsgEarthNet.uav[63] utilizationSecMaintenance 16904.512155359
scalar OsgEarthNet.uav[63] utilizationSecCharge 170320
scalar OsgEarthNet.uav[63] utilizationSecIdle 41797.623233682
scalar OsgEarthNet.uav[63] utilizationEnergyMission 138851.27246612
scalar OsgEarthNet.uav[63] utilizationEnergyMaintenance 77489.629562378
scalar OsgEarthNet.uav[63] utilizationEnergyCharge 213811.88476562
scalar OsgEarthNet.uav[63] utilizationEnergyOverdrawMission 0
scalar OsgEarthNet.uav[63] utilizationEnergyOverdrawMaintenance 0
scalar OsgEarthNet.uav[63] utilizationCountMissions 47
scalar OsgEarthNet.uav[63] utilizationCountManeuversMission 484
scalar OsgEarthNet.uav[63] utilizationCountManeuversMaintenance 95
scalar OsgEarthNet.uav[63] utilizationCountChargeState 47
scalar OsgEarthNet.uav[63] utilizationCountOverdrawnAfterMission 0
scalar OsgEarthNet.uav[63] utilizationCountIdleState 45
scalar OsgEarthNet.uav[63] utilizationFail 0
scalar OsgEarthNet.uav[63] simulationTime 259200
scalar OsgEarthNet.uav[64] utilizationSecMission 27814.706050104
scalar OsgEarthNet.uav[64] utilizationSecMaintenance 20518.82305075
scalar OsgEarthNet.uav[64] utilizationSecCharge 177520
scalar OsgEarthNet.uav[64] utilizationSecIdle 33346.469899146
scalar OsgEarthNet.uav[64] utilizationEnergyMission 128817.15628052
scalar OsgEarthNet.uav[64] utilizationEnergyMaintenance 94232.157543182
scalar OsgEarthNet.uav[64] utilizationEnergyCharge 223136.88085938
scalar OsgEarthNet.uav[64] utilizationEnergyOverdrawMission 0
scalar OsgEarthNet.uav[64] utilizationEnergyOverdrawMaintenance 0
scalar OsgEarthNet.uav[64] utilizationCountMissions 49
scalar OsgEarthNet.uav[64] utilizationCountManeuversMission 457
scalar OsgEarthNet.uav[64] utilizationCountManeuversMaintenance 98
scalar OsgEarthNet.uav[64] utilizationCountChargeState 49
scalar OsgEarthNet.uav[64] utilizationCountOverdrawnAfterMission 0
scalar OsgEarthNet.uav[64] utilizationCountIdleState 45
scalar OsgEarthNet.uav[64] utilizationFail 0
scalar OsgEarthNet.uav[64] simulationTime 259200
scalar OsgEarthNet.uav[65] utilizationSecMission 28046.803793867
scalar OsgEarthNet.uav[65] utilizationSecMaintenance 23088.973429893
scalar OsgEarthNet.uav[65] utilizationSecCharge 184822.22177624
scalar OsgEarthNet.uav[65] utilizationSecIdle 23242
scalar OsgEarthNet.uav[65] utilizationEnergyMission 130441.34707215
scalar OsgEarthNet.uav[65] utilizationEnergyMaintenance 107605.06420517
scalar OsgEarthNet.uav[65] utilizationEnergyCharge 232042.61224365
scalar OsgEarthNet.uav[65] utilizationEnergyOverdrawMission 0
scalar OsgEarthNet.uav[65] utilizationEnergyOverdrawMaintenance 0
scalar OsgEarthNet.uav[65] utilizationCountMissions 52
scalar OsgEarthNet.uav[65] utilizationCountManeuversMission 464
scalar OsgEarthNet.uav[65] utilizationCountManeuversMaintenance 103
scalar OsgEarthNet.uav[65] utilizationCountChargeState 52
scalar OsgEarthNet.uav[65] utilizationCountOverdrawnAfterMission 0
scalar OsgEarthNet.uav[65] utilizationCountIdleState 45
scalar OsgEarthNet.uav[65] utilizationFail 0
scalar OsgEarthNet.uav[65] simulationTime 259200
scalar OsgEarthNet.uav[66] utilizationSecMission 27053.524693715
scalar OsgEarthNet.uav[66] utilizationSecMaintenance 22475.283873747
scalar OsgEarthNet.uav[66] utilizationSecCharge 181170
scalar OsgEarthNet.uav[66] utilizationSecIdle 28501.190432537
scalar OsgEarthNet.uav[66] utilizationEnergyMission 124156.83575439
scalar OsgEarthNet.uav[66] utilizationEnergyMaintenance 104567.6508524
scalar OsgEarthNet.uav[66] utilizationEnergyCharge 228126.63476562
scalar OsgEarthNet.uav[66] utilizationEnergyOverdrawMission 0
scalar OsgEarthNet.uav[66] utilizationEnergyOverdrawMaintenance 0
scalar OsgEarthNet.uav[66] utilizationCountMissions 50
scalar OsgEarthNet.uav[66] utilizationCountManeuversMission 445
scalar OsgEarthNet.uav[66] utilizationCountManeuversMaintenance 101
scalar OsgEarthNet.uav[66] utilizationCountChargeState 50
scalar OsgEarthNet.uav[66] utilizationCountOverdrawnAfterMission 0
scalar OsgEarthNet.uav[66] utilizationCountIdleState 41
scalar OsgEarthNet.uav[66] utilizationFail 0
scalar OsgEarthNet.uav[66] simulationTime 259200
scalar OsgEarthNet.uav[67] utilizationSecMission 29742.174837491
scalar OsgEarthNet.uav[67] utilizationSecMaintenance 21987.736138913
scalar OsgEarthNet.uav[67] utilizationSecCharge 185469.0321981
scalar OsgEarthNet.uav[67] utilizationSecIdle 22001.055825492
scalar OsgEarthNet.uav[67] utilizationEnergyMission 137524.76563263
scalar OsgEarthNet.uav[67] utilizationEnergyMaintenance 101594.37231064
scalar OsgEarthNet.uav[67] utilizationEnergyCharge 235368.76525879
scalar OsgEarthNet.uav[67] utilizationEnergyOverdrawMission 0
scalar OsgEarthNet.uav[67] utilizationEnergyOverdrawMaintenance 0
scalar OsgEarthNet.uav[67] utilizationCountMissions 52
scalar OsgEarthNet.uav[67] utilizationCountManeuversMission 490
scalar OsgEarthNet.uav[67] utilizationCountManeuversMaintenance 104
scalar OsgEarthNet.uav[67] utilizationCountChargeState 52
scalar OsgEarthNet.uav[67] utilizationCountOverdrawnAfterMission 0
scalar OsgEarthNet.uav[67] utilizationCountIdleState 40
scalar OsgEarthNet.uav[67] utilizationFail 0
scalar OsgEarthNet.uav[67] simulationTime 259200
scalar OsgEarthNet.uav[68] utilizationSecMission 28684.565765784
scalar OsgEarthNet.uav[68] utilizationSecMaintenance 23032.140450143
scalar OsgEarthNet.uav[68] utilizationSecCharge 187593.45597003
scalar OsgEarthNet.uav[68] utilizationSecIdle 19889.83681404
scalar OsgEarthNet.uav[68] utilizationEnergyMission 134689.86157227
scalar OsgEarthNet.uav[68] utilizationEnergyMaintenance 106820.02265167
scalar OsgEarthNet.uav[68] utilizationEnergyCharge 238631.60107422
scalar OsgEarthNet.uav[68] utilizationEnergyOverdrawMission 0
scalar OsgEarthNet.uav[68] utilizationEnergyOverdrawMaintenance 0
scalar OsgEarthNet.uav[68] utilizationCountMissions 53
scalar OsgEarthNet.uav[68] utilizationCountManeuversMission 461
scalar OsgEarthNet.uav[68] utilizationCountManeuversMaintenance 106
scalar OsgEarthNet.uav[68] utilizationCountChargeState 53
scalar OsgEarthNet.uav[68] utilizationCountOverdrawnAfterMission 0
scalar OsgEarthNet.uav[68] utilizationCountIdleState 39
scalar OsgEarthNet.uav[68] utilizationFail 0
scalar OsgEarthNet.uav[68] simulationTime 259200
scalar OsgEarthNet.uav[69] utilizationSecMission 30527.549890024
scalar OsgEarthNet.uav[69] utilizationSecMaintenance 19590.523109309
scalar OsgEarthNet.uav[69] utilizationSecCharge 179303.10491971
scalar OsgEarthNet.uav[69] utilizationSecIdle 29778.821080959
scalar OsgEarthNet.uav[69] utilizationEnergyMission 140467.73387909
scalar OsgEarthNet.uav[69] utilizationEnergyMaintenance 88963.556163788
scalar OsgEarthNet.uav[69] utilizationEnergyCharge 226194.45776367
scalar OsgEarthNet.uav[69] utilizationEnergyOverdrawMission 0
scalar OsgEarthNet.uav[69] utilizationEnergyOverdrawMaintenance 0
scalar OsgEarthNet.uav[69] utilizationCountMissions 51
scalar OsgEarthNet.uav[69] utilizationCountManeuversMission 483
scalar OsgEarthNet.uav[69] utilizationCountManeuversMaintenance 102
scalar OsgEarthNet.uav[69] utilizationCountChargeState 51
scalar OsgEarthNet.uav[69] utilizationCountOverdrawnAfterMission 0
scalar OsgEarthNet.uav[69] utilizationCountIdleState 41
scalar OsgEarthNet.uav[69] utilizationFail 0
scalar OsgEarthNet.uav[69] simulationTime 259200
scalar OsgEarthNet.cs[0] usedPower 2096376.5842124
scalar OsgEarthNet.cs[0] chargedPower 2096376.5842124
scalar OsgEarthNet.cs[0] chargedMobileNodes 438
scalar OsgEarthNet.cs[0] reservations 467
scalar OsgEarthNet.cs[1] usedPower 3080815.8907589
scalar OsgEarthNet.cs[1] chargedPower 3080815.8907589
scalar OsgEarthNet.cs[1] chargedMobileNodes 636
scalar OsgEarthNet.cs[1] reservations 667
scalar OsgEarthNet.cs[2] usedPower 4755703.6064948
scalar OsgEarthNet.cs[2] chargedPower 4755703.6064948
scalar OsgEarthNet.cs[2] chargedMobileNodes 993
scalar OsgEarthNet.cs[2] reservations 1053

