version 2
run Szenario_Hotel_Gabelbach-124-20180710-05:28:17-45424
attr configname Szenario_Hotel_Gabelbach
attr datetime 20180710-05:28:17
attr experiment Szenario_Hotel_Gabelbach
attr inifile omnetpp.ini
attr iterationvars "$numUAVs=90, $replM=0"
attr iterationvarsf numUAVs=90,replM=0-
attr measurement "$numUAVs=90, $replM=0"
attr network OsgEarthNet
attr processid 45424
attr repetition 12
attr replication #12
attr resultdir results
attr runnumber 124
attr seedset 124
itervar numUAVs 90
itervar replM 0
param *.osgEarthScene.scene "\"Szenario_Hotel_Gabelbach.earth\""
param *.playgroundLatitude 50.6830269
param *.playgroundLongitude 10.8538055
param *.playgroundWidth 3500m
param *.playgroundHeight 3500m
param *.numCSs 3
param *.cs[0].posX 3537m
param *.cs[0].posY 965m
param *.cs[0].posZ 538m
param *.cs[1].posX 312m
param *.cs[1].posY 1262m
param *.cs[1].posZ 539m
param *.cs[2].posX 2185m
param *.cs[2].posY 3026m
param *.cs[2].posZ 777m
param *.cs[3].posX 10m
param *.cs[3].posY 2200m
param *.cs[3].posZ 560m
param *.cs[4].posX 750m
param *.cs[4].posY 200m
param *.cs[4].posZ 540m
param *.cs[5].posX 2450m
param *.cs[5].posY 180m
param *.cs[5].posZ 524m
param *.cs[6].posX 3140m
param *.cs[6].posY 1790m
param *.cs[6].posZ 606m
param *.numUAVs 90
param *.uav[*].replacementMethod 0
param *.*.timeStep 10s
param *.uav[*].commandPreviewCommandCount 20
param *.missionControl.missionFiles "\"missions\\\\Szenario_WB_Hotel_Gabelbach_Mission_Hotel.waypoints,missions\\\\Szenario_WB_Hotel_Gabelbach_Mission_Kickelhahn.waypoints,missions\\\\Szenario_WB_Hotel_Gabelbach_Mission_Ilmenau_Sportplatz.waypoints,missions\\\\Szenario_WB_Hotel_Gabelbach_Mission_Manebach_Mitte.waypoints,missions\\\\Szenario_WB_Hotel_Gabelbach_Mission_Manebach_Sued.waypoints\""
param *.missionControl.missionFiles "\"missions\\\\Szenario_WB_Hotel_Gabelbach_Mission_Hotel.waypoints,missions\\\\Szenario_WB_Hotel_Gabelbach_Mission_Kickelhahn.waypoints,missions\\\\Szenario_WB_Hotel_Gabelbach_Mission_Ilmenau_Sportplatz.waypoints,missions\\\\Szenario_WB_Hotel_Gabelbach_Mission_Manebach_Mitte.waypoints,missions\\\\Szenario_WB_Hotel_Gabelbach_Mission_Manebach_Sued.waypoints,missions\\\\Szenario_WB_Hotel_Gabelbach_Hover_HoheSchlaufe.waypoints,missions\\\\Szenario_WB_Hotel_Gabelbach_Hover_Kickelhahn.waypoints,missions\\\\Szenario_WB_Hotel_Gabelbach_Hover_Gabelbachskopf.waypoints,missions\\\\Szenario_WB_Hotel_Gabelbach_Hover_Dachskopf.waypoints\""
param *.uav[0].startX 3537m
param *.uav[0].startY 965m
param *.uav[0].startZ 539m
param *.uav[1].startX 312m
param *.uav[1].startY 1262m
param *.uav[1].startZ 540m
param *.uav[2].startX 2185m
param *.uav[2].startY 3026m
param *.uav[2].startZ 778m
param *.uav[3].startX 3537m
param *.uav[3].startY 965m
param *.uav[3].startZ 539m
param *.uav[4].startX 312m
param *.uav[4].startY 1262m
param *.uav[4].startZ 540m
param *.uav[5].startX 2185m
param *.uav[5].startY 3026m
param *.uav[5].startZ 778m
param *.uav[6].startX 3537m
param *.uav[6].startY 965m
param *.uav[6].startZ 539m
param *.uav[7].startX 312m
param *.uav[7].startY 1262m
param *.uav[7].startZ 540m
param *.uav[8].startX 2185m
param *.uav[8].startY 3026m
param *.uav[8].startZ 778m
param *.uav[9].startX 3537m
param *.uav[9].startY 965m
param *.uav[9].startZ 539m
param *.uav[10].startX 3537m
param *.uav[10].startY 965m
param *.uav[10].startZ 539m
param *.uav[11].startX 312m
param *.uav[11].startY 1262m
param *.uav[11].startZ 540m
param *.uav[12].startX 2185m
param *.uav[12].startY 3026m
param *.uav[12].startZ 778m
param *.uav[13].startX 3537m
param *.uav[13].startY 965m
param *.uav[13].startZ 539m
param *.uav[14].startX 312m
param *.uav[14].startY 1262m
param *.uav[14].startZ 540m
param *.uav[15].startX 2185m
param *.uav[15].startY 3026m
param *.uav[15].startZ 778m
param *.uav[16].startX 3537m
param *.uav[16].startY 965m
param *.uav[16].startZ 539m
param *.uav[17].startX 312m
param *.uav[17].startY 1262m
param *.uav[17].startZ 540m
param *.uav[18].startX 2185m
param *.uav[18].startY 3026m
param *.uav[18].startZ 778m
param *.uav[19].startX 3537m
param *.uav[19].startY 965m
param *.uav[19].startZ 539m
param *.uav[20].startX 3537m
param *.uav[20].startY 965m
param *.uav[20].startZ 539m
param *.uav[21].startX 312m
param *.uav[21].startY 1262m
param *.uav[21].startZ 540m
param *.uav[22].startX 2185m
param *.uav[22].startY 3026m
param *.uav[22].startZ 778m
param *.uav[23].startX 3537m
param *.uav[23].startY 965m
param *.uav[23].startZ 539m
param *.uav[24].startX 312m
param *.uav[24].startY 1262m
param *.uav[24].startZ 540m
param *.uav[25].startX 2185m
param *.uav[25].startY 3026m
param *.uav[25].startZ 778m
param *.uav[26].startX 3537m
param *.uav[26].startY 965m
param *.uav[26].startZ 539m
param *.uav[27].startX 312m
param *.uav[27].startY 1262m
param *.uav[27].startZ 540m
param *.uav[28].startX 2185m
param *.uav[28].startY 3026m
param *.uav[28].startZ 778m
param *.uav[29].startX 3537m
param *.uav[29].startY 965m
param *.uav[29].startZ 539m
param *.uav[30].startX 3537m
param *.uav[30].startY 965m
param *.uav[30].startZ 539m
param *.uav[31].startX 312m
param *.uav[31].startY 1262m
param *.uav[31].startZ 540m
param *.uav[32].startX 2185m
param *.uav[32].startY 3026m
param *.uav[32].startZ 778m
param *.uav[33].startX 3537m
param *.uav[33].startY 965m
param *.uav[33].startZ 539m
param *.uav[34].startX 312m
param *.uav[34].startY 1262m
param *.uav[34].startZ 540m
param *.uav[35].startX 2185m
param *.uav[35].startY 3026m
param *.uav[35].startZ 778m
param *.uav[36].startX 3537m
param *.uav[36].startY 965m
param *.uav[36].startZ 539m
param *.uav[37].startX 312m
param *.uav[37].startY 1262m
param *.uav[37].startZ 540m
param *.uav[38].startX 2185m
param *.uav[38].startY 3026m
param *.uav[38].startZ 778m
param *.uav[39].startX 3537m
param *.uav[39].startY 965m
param *.uav[39].startZ 539m
param *.uav[40].startX 3537m
param *.uav[40].startY 965m
param *.uav[40].startZ 539m
param *.uav[41].startX 312m
param *.uav[41].startY 1262m
param *.uav[41].startZ 540m
param *.uav[42].startX 2185m
param *.uav[42].startY 3026m
param *.uav[42].startZ 778m
param *.uav[43].startX 3537m
param *.uav[43].startY 965m
param *.uav[43].startZ 539m
param *.uav[44].startX 312m
param *.uav[44].startY 1262m
param *.uav[44].startZ 540m
param *.uav[45].startX 2185m
param *.uav[45].startY 3026m
param *.uav[45].startZ 778m
param *.uav[46].startX 3537m
param *.uav[46].startY 965m
param *.uav[46].startZ 539m
param *.uav[47].startX 312m
param *.uav[47].startY 1262m
param *.uav[47].startZ 540m
param *.uav[48].startX 2185m
param *.uav[48].startY 3026m
param *.uav[48].startZ 778m
param *.uav[49].startX 3537m
param *.uav[49].startY 965m
param *.uav[49].startZ 539m
param *.uav[50].startX 3537m
param *.uav[50].startY 965m
param *.uav[50].startZ 539m
param *.uav[51].startX 312m
param *.uav[51].startY 1262m
param *.uav[51].startZ 540m
param *.uav[52].startX 2185m
param *.uav[52].startY 3026m
param *.uav[52].startZ 778m
param *.uav[53].startX 3537m
param *.uav[53].startY 965m
param *.uav[53].startZ 539m
param *.uav[54].startX 312m
param *.uav[54].startY 1262m
param *.uav[54].startZ 540m
param *.uav[55].startX 2185m
param *.uav[55].startY 3026m
param *.uav[55].startZ 778m
param *.uav[56].startX 3537m
param *.uav[56].startY 965m
param *.uav[56].startZ 539m
param *.uav[57].startX 312m
param *.uav[57].startY 1262m
param *.uav[57].startZ 540m
param *.uav[58].startX 2185m
param *.uav[58].startY 3026m
param *.uav[58].startZ 778m
param *.uav[59].startX 3537m
param *.uav[59].startY 965m
param *.uav[59].startZ 539m
param *.uav[60].startX 3537m
param *.uav[60].startY 965m
param *.uav[60].startZ 539m
param *.uav[61].startX 312m
param *.uav[61].startY 1262m
param *.uav[61].startZ 540m
param *.uav[62].startX 2185m
param *.uav[62].startY 3026m
param *.uav[62].startZ 778m
param *.uav[63].startX 3537m
param *.uav[63].startY 965m
param *.uav[63].startZ 539m
param *.uav[64].startX 312m
param *.uav[64].startY 1262m
param *.uav[64].startZ 540m
param *.uav[65].startX 2185m
param *.uav[65].startY 3026m
param *.uav[65].startZ 778m
param *.uav[66].startX 3537m
param *.uav[66].startY 965m
param *.uav[66].startZ 539m
param *.uav[67].startX 312m
param *.uav[67].startY 1262m
param *.uav[67].startZ 540m
param *.uav[68].startX 2185m
param *.uav[68].startY 3026m
param *.uav[68].startZ 778m
param *.uav[69].startX 3537m
param *.uav[69].startY 965m
param *.uav[69].startZ 539m
param *.uav[70].startX 3537m
param *.uav[70].startY 965m
param *.uav[70].startZ 539m
param *.uav[71].startX 312m
param *.uav[71].startY 1262m
param *.uav[71].startZ 540m
param *.uav[72].startX 2185m
param *.uav[72].startY 3026m
param *.uav[72].startZ 778m
param *.uav[73].startX 3537m
param *.uav[73].startY 965m
param *.uav[73].startZ 539m
param *.uav[74].startX 312m
param *.uav[74].startY 1262m
param *.uav[74].startZ 540m
param *.uav[75].startX 2185m
param *.uav[75].startY 3026m
param *.uav[75].startZ 778m
param *.uav[76].startX 3537m
param *.uav[76].startY 965m
param *.uav[76].startZ 539m
param *.uav[77].startX 312m
param *.uav[77].startY 1262m
param *.uav[77].startZ 540m
param *.uav[78].startX 2185m
param *.uav[78].startY 3026m
param *.uav[78].startZ 778m
param *.uav[79].startX 3537m
param *.uav[79].startY 965m
param *.uav[79].startZ 539m
param *.uav[80].startX 3537m
param *.uav[80].startY 965m
param *.uav[80].startZ 539m
param *.uav[81].startX 312m
param *.uav[81].startY 1262m
param *.uav[81].startZ 540m
param *.uav[82].startX 2185m
param *.uav[82].startY 3026m
param *.uav[82].startZ 778m
param *.uav[83].startX 3537m
param *.uav[83].startY 965m
param *.uav[83].startZ 539m
param *.uav[84].startX 312m
param *.uav[84].startY 1262m
param *.uav[84].startZ 540m
param *.uav[85].startX 2185m
param *.uav[85].startY 3026m
param *.uav[85].startZ 778m
param *.uav[86].startX 3537m
param *.uav[86].startY 965m
param *.uav[86].startZ 539m
param *.uav[87].startX 312m
param *.uav[87].startY 1262m
param *.uav[87].startZ 540m
param *.uav[88].startX 2185m
param *.uav[88].startY 3026m
param *.uav[88].startZ 778m
param *.uav[89].startX 3537m
param *.uav[89].startY 965m
param *.uav[89].startZ 539m
param *.uav[90].startX 3537m
param *.uav[90].startY 965m
param *.uav[90].startZ 539m
param *.uav[91].startX 312m
param *.uav[91].startY 1262m
param *.uav[91].startZ 540m
param *.uav[92].startX 2185m
param *.uav[92].startY 3026m
param *.uav[92].startZ 778m
param *.uav[93].startX 3537m
param *.uav[93].startY 965m
param *.uav[93].startZ 539m
param *.uav[94].startX 312m
param *.uav[94].startY 1262m
param *.uav[94].startZ 540m
param *.uav[95].startX 2185m
param *.uav[95].startY 3026m
param *.uav[95].startZ 778m
param *.uav[96].startX 3537m
param *.uav[96].startY 965m
param *.uav[96].startZ 539m
param *.uav[97].startX 312m
param *.uav[97].startY 1262m
param *.uav[97].startZ 540m
param *.uav[98].startX 2185m
param *.uav[98].startY 3026m
param *.uav[98].startZ 778m
param *.uav[99].startX 3537m
param *.uav[99].startY 965m
param *.uav[99].startZ 539m
param *.osgEarthScene.scene "\"boston.earth\""
param *.playgroundLatitude 42.3558
param *.playgroundLongitude -71.0677
param *.playgroundWidth 400m
param *.playgroundHeight 200m
param *.channelController.connectionColor "\"#0000FF40\""
param *.channelController.showConnections false
param *.uav[*].modelURL "\"quadrocopter.small.obj.15.scale.0,0,90.rot\""
param *.uav[*].labelColor "\"#FF7C00CC\""
param *.uav[*].label2Color "\"#FF7C00EE\""
param *.uav[*].batteryCapacity 5200mAh
param *.uav[*].batteryRemaining uav[index].batteryCapacity
param *.uav[*].predictionQuantile 0.95
param *.uav[*].replacementMethod 2
param *.uav[*].weightedSumWeight 0.5
param *.cs[*].modelURL "\"chargingstation_v1.osgt.2.scale.0,0,0.rot.0,0,-15e-1.trans\""
param *.cs[*].spotsWaiting 999
param *.cs[*].spotsCharging 999
param *.cs[*].chargeEffectivenessPercentage 100
param *.cs[*].nonLinearPhaseStartPercentage 85
param *.cs[*].chargeCurrent 6.0A
param *.cs[*].prioritizeFastCharge true
param *.missionControl.replacementSearchMethod 0
param *.*.timeStep 9s

scalar OsgEarthNet.uav[0] utilizationSecMission 343.68863208153
scalar OsgEarthNet.uav[0] utilizationSecMaintenance 589.36831023416
scalar OsgEarthNet.uav[0] utilizationSecCharge 3460
scalar OsgEarthNet.uav[0] utilizationSecIdle 254806.94205768
scalar OsgEarthNet.uav[0] utilizationEnergyMission 1644.1415252686
scalar OsgEarthNet.uav[0] utilizationEnergyMaintenance 2607.5037956238
scalar OsgEarthNet.uav[0] utilizationEnergyCharge 4251.6508789062
scalar OsgEarthNet.uav[0] utilizationEnergyOverdrawMission 0
scalar OsgEarthNet.uav[0] utilizationEnergyOverdrawMaintenance 0
scalar OsgEarthNet.uav[0] utilizationCountMissions 1
scalar OsgEarthNet.uav[0] utilizationCountManeuversMission 7
scalar OsgEarthNet.uav[0] utilizationCountManeuversMaintenance 2
scalar OsgEarthNet.uav[0] utilizationCountChargeState 1
scalar OsgEarthNet.uav[0] utilizationCountOverdrawnAfterMission 0
scalar OsgEarthNet.uav[0] utilizationCountIdleState 2
scalar OsgEarthNet.uav[0] utilizationFail 0
scalar OsgEarthNet.uav[0] simulationTime 259200
scalar OsgEarthNet.uav[1] utilizationSecMission 553.12566654921
scalar OsgEarthNet.uav[1] utilizationSecMaintenance 489.82638271256
scalar OsgEarthNet.uav[1] utilizationSecCharge 3860
scalar OsgEarthNet.uav[1] utilizationSecIdle 254297.04695074
scalar OsgEarthNet.uav[1] utilizationEnergyMission 2548.1994018555
scalar OsgEarthNet.uav[1] utilizationEnergyMaintenance 2467.9170646667
scalar OsgEarthNet.uav[1] utilizationEnergyCharge 4965.2841796875
scalar OsgEarthNet.uav[1] utilizationEnergyOverdrawMission 0
scalar OsgEarthNet.uav[1] utilizationEnergyOverdrawMaintenance 0
scalar OsgEarthNet.uav[1] utilizationCountMissions 1
scalar OsgEarthNet.uav[1] utilizationCountManeuversMission 9
scalar OsgEarthNet.uav[1] utilizationCountManeuversMaintenance 2
scalar OsgEarthNet.uav[1] utilizationCountChargeState 1
scalar OsgEarthNet.uav[1] utilizationCountOverdrawnAfterMission 0
scalar OsgEarthNet.uav[1] utilizationCountIdleState 2
scalar OsgEarthNet.uav[1] utilizationFail 0
scalar OsgEarthNet.uav[1] simulationTime 259200
scalar OsgEarthNet.uav[2] utilizationSecMission 694.00169469977
scalar OsgEarthNet.uav[2] utilizationSecMaintenance 338.49695459722
scalar OsgEarthNet.uav[2] utilizationSecCharge 3860
scalar OsgEarthNet.uav[2] utilizationSecIdle 254307.5003507
scalar OsgEarthNet.uav[2] utilizationEnergyMission 3258.8650741577
scalar OsgEarthNet.uav[2] utilizationEnergyMaintenance 1655.6712760925
scalar OsgEarthNet.uav[2] utilizationEnergyCharge 4914.5341796875
scalar OsgEarthNet.uav[2] utilizationEnergyOverdrawMission 0
scalar OsgEarthNet.uav[2] utilizationEnergyOverdrawMaintenance 0
scalar OsgEarthNet.uav[2] utilizationCountMissions 1
scalar OsgEarthNet.uav[2] utilizationCountManeuversMission 13
scalar OsgEarthNet.uav[2] utilizationCountManeuversMaintenance 2
scalar OsgEarthNet.uav[2] utilizationCountChargeState 1
scalar OsgEarthNet.uav[2] utilizationCountOverdrawnAfterMission 0
scalar OsgEarthNet.uav[2] utilizationCountIdleState 2
scalar OsgEarthNet.uav[2] utilizationFail 0
scalar OsgEarthNet.uav[2] simulationTime 259200
scalar OsgEarthNet.uav[3] utilizationSecMission 650.68693590098
scalar OsgEarthNet.uav[3] utilizationSecMaintenance 350.31285707965
scalar OsgEarthNet.uav[3] utilizationSecCharge 3650
scalar OsgEarthNet.uav[3] utilizationSecIdle 254548.99920702
scalar OsgEarthNet.uav[3] utilizationEnergyMission 2966.6354980469
scalar OsgEarthNet.uav[3] utilizationEnergyMaintenance 1629.3034591675
scalar OsgEarthNet.uav[3] utilizationEnergyCharge 4595.9448242188
scalar OsgEarthNet.uav[3] utilizationEnergyOverdrawMission 0
scalar OsgEarthNet.uav[3] utilizationEnergyOverdrawMaintenance 0
scalar OsgEarthNet.uav[3] utilizationCountMissions 1
scalar OsgEarthNet.uav[3] utilizationCountManeuversMission 9
scalar OsgEarthNet.uav[3] utilizationCountManeuversMaintenance 2
scalar OsgEarthNet.uav[3] utilizationCountChargeState 1
scalar OsgEarthNet.uav[3] utilizationCountOverdrawnAfterMission 0
scalar OsgEarthNet.uav[3] utilizationCountIdleState 2
scalar OsgEarthNet.uav[3] utilizationFail 0
scalar OsgEarthNet.uav[3] simulationTime 259200
scalar OsgEarthNet.uav[4] utilizationSecMission 694.00169469977
scalar OsgEarthNet.uav[4] utilizationSecMaintenance 299.33362405216
scalar OsgEarthNet.uav[4] utilizationSecCharge 3760
scalar OsgEarthNet.uav[4] utilizationSecIdle 254446.66368125
scalar OsgEarthNet.uav[4] utilizationEnergyMission 3354.1950073242
scalar OsgEarthNet.uav[4] utilizationEnergyMaintenance 1445.9042472839
scalar OsgEarthNet.uav[4] utilizationEnergyCharge 4800.09765625
scalar OsgEarthNet.uav[4] utilizationEnergyOverdrawMission 0
scalar OsgEarthNet.uav[4] utilizationEnergyOverdrawMaintenance 0
scalar OsgEarthNet.uav[4] utilizationCountMissions 1
scalar OsgEarthNet.uav[4] utilizationCountManeuversMission 13
scalar OsgEarthNet.uav[4] utilizationCountManeuversMaintenance 2
scalar OsgEarthNet.uav[4] utilizationCountChargeState 1
scalar OsgEarthNet.uav[4] utilizationCountOverdrawnAfterMission 0
scalar OsgEarthNet.uav[4] utilizationCountIdleState 2
scalar OsgEarthNet.uav[4] utilizationFail 0
scalar OsgEarthNet.uav[4] simulationTime 259200
scalar OsgEarthNet.uav[5] utilizationSecMission 28535.525924759
scalar OsgEarthNet.uav[5] utilizationSecMaintenance 17444.500087114
scalar OsgEarthNet.uav[5] utilizationSecCharge 167268.52002941
scalar OsgEarthNet.uav[5] utilizationSecIdle 45951.452958717
scalar OsgEarthNet.uav[5] utilizationEnergyMission 132072.8484726
scalar OsgEarthNet.uav[5] utilizationEnergyMaintenance 80069.919891357
scalar OsgEarthNet.uav[5] utilizationEnergyCharge 211145.32324219
scalar OsgEarthNet.uav[5] utilizationEnergyOverdrawMission 0
scalar OsgEarthNet.uav[5] utilizationEnergyOverdrawMaintenance 0
scalar OsgEarthNet.uav[5] utilizationCountMissions 46
scalar OsgEarthNet.uav[5] utilizationCountManeuversMission 471
scalar OsgEarthNet.uav[5] utilizationCountManeuversMaintenance 92
scalar OsgEarthNet.uav[5] utilizationCountChargeState 46
scalar OsgEarthNet.uav[5] utilizationCountOverdrawnAfterMission 0
scalar OsgEarthNet.uav[5] utilizationCountIdleState 46
scalar OsgEarthNet.uav[5] utilizationFail 0
scalar OsgEarthNet.uav[5] simulationTime 259200
scalar OsgEarthNet.uav[6] utilizationSecMission 28030.824455239
scalar OsgEarthNet.uav[6] utilizationSecMaintenance 18517.034731617
scalar OsgEarthNet.uav[6] utilizationSecCharge 169560
scalar OsgEarthNet.uav[6] utilizationSecIdle 43092.139813144
scalar OsgEarthNet.uav[6] utilizationEnergyMission 128081.75536659
scalar OsgEarthNet.uav[6] utilizationEnergyMaintenance 85056.67175293
scalar OsgEarthNet.uav[6] utilizationEnergyCharge 211751.55273438
scalar OsgEarthNet.uav[6] utilizationEnergyOverdrawMission 0
scalar OsgEarthNet.uav[6] utilizationEnergyOverdrawMaintenance 0
scalar OsgEarthNet.uav[6] utilizationCountMissions 47
scalar OsgEarthNet.uav[6] utilizationCountManeuversMission 468
scalar OsgEarthNet.uav[6] utilizationCountManeuversMaintenance 95
scalar OsgEarthNet.uav[6] utilizationCountChargeState 47
scalar OsgEarthNet.uav[6] utilizationCountOverdrawnAfterMission 0
scalar OsgEarthNet.uav[6] utilizationCountIdleState 48
scalar OsgEarthNet.uav[6] utilizationFail 0
scalar OsgEarthNet.uav[6] simulationTime 259200
scalar OsgEarthNet.uav[7] utilizationSecMission 694.00169469977
scalar OsgEarthNet.uav[7] utilizationSecMaintenance 299.33362405216
scalar OsgEarthNet.uav[7] utilizationSecCharge 3700
scalar OsgEarthNet.uav[7] utilizationSecIdle 254506.66368125
scalar OsgEarthNet.uav[7] utilizationEnergyMission 3255.2706260681
scalar OsgEarthNet.uav[7] utilizationEnergyMaintenance 1455.6306877136
scalar OsgEarthNet.uav[7] utilizationEnergyCharge 4710.90234375
scalar OsgEarthNet.uav[7] utilizationEnergyOverdrawMission 0
scalar OsgEarthNet.uav[7] utilizationEnergyOverdrawMaintenance 0
scalar OsgEarthNet.uav[7] utilizationCountMissions 1
scalar OsgEarthNet.uav[7] utilizationCountManeuversMission 13
scalar OsgEarthNet.uav[7] utilizationCountManeuversMaintenance 2
scalar OsgEarthNet.uav[7] utilizationCountChargeState 1
scalar OsgEarthNet.uav[7] utilizationCountOverdrawnAfterMission 0
scalar OsgEarthNet.uav[7] utilizationCountIdleState 2
scalar OsgEarthNet.uav[7] utilizationFail 0
scalar OsgEarthNet.uav[7] simulationTime 259200
scalar OsgEarthNet.uav[8] utilizationSecMission 18339.243174726
scalar OsgEarthNet.uav[8] utilizationSecMaintenance 12868.545292242
scalar OsgEarthNet.uav[8] utilizationSecCharge 112102.57945237
scalar OsgEarthNet.uav[8] utilizationSecIdle 115889.63108067
scalar OsgEarthNet.uav[8] utilizationEnergyMission 84047.526859283
scalar OsgEarthNet.uav[8] utilizationEnergyMaintenance 58578.917804718
scalar OsgEarthNet.uav[8] utilizationEnergyCharge 140017.82653809
scalar OsgEarthNet.uav[8] utilizationEnergyOverdrawMission 0
scalar OsgEarthNet.uav[8] utilizationEnergyOverdrawMaintenance 0
scalar OsgEarthNet.uav[8] utilizationCountMissions 32
scalar OsgEarthNet.uav[8] utilizationCountManeuversMission 311
scalar OsgEarthNet.uav[8] utilizationCountManeuversMaintenance 64
scalar OsgEarthNet.uav[8] utilizationCountChargeState 32
scalar OsgEarthNet.uav[8] utilizationCountOverdrawnAfterMission 0
scalar OsgEarthNet.uav[8] utilizationCountIdleState 32
scalar OsgEarthNet.uav[8] utilizationFail 0
scalar OsgEarthNet.uav[8] simulationTime 259200
scalar OsgEarthNet.uav[9] utilizationSecMission 416.51428501943
scalar OsgEarthNet.uav[9] utilizationSecMaintenance 614.10359476363
scalar OsgEarthNet.uav[9] utilizationSecCharge 3910
scalar OsgEarthNet.uav[9] utilizationSecIdle 254259.38112022
scalar OsgEarthNet.uav[9] utilizationEnergyMission 2190.603225708
scalar OsgEarthNet.uav[9] utilizationEnergyMaintenance 2816.8178825378
scalar OsgEarthNet.uav[9] utilizationEnergyCharge 5007.4169921875
scalar OsgEarthNet.uav[9] utilizationEnergyOverdrawMission 0
scalar OsgEarthNet.uav[9] utilizationEnergyOverdrawMaintenance 0
scalar OsgEarthNet.uav[9] utilizationCountMissions 1
scalar OsgEarthNet.uav[9] utilizationCountManeuversMission 8
scalar OsgEarthNet.uav[9] utilizationCountManeuversMaintenance 2
scalar OsgEarthNet.uav[9] utilizationCountChargeState 1
scalar OsgEarthNet.uav[9] utilizationCountOverdrawnAfterMission 0
scalar OsgEarthNet.uav[9] utilizationCountIdleState 2
scalar OsgEarthNet.uav[9] utilizationFail 0
scalar OsgEarthNet.uav[9] simulationTime 259200
scalar OsgEarthNet.uav[10] utilizationSecMission 30216.380917439
scalar OsgEarthNet.uav[10] utilizationSecMaintenance 16476.497734735
scalar OsgEarthNet.uav[10] utilizationSecCharge 172304.35438249
scalar OsgEarthNet.uav[10] utilizationSecIdle 40202.765965339
scalar OsgEarthNet.uav[10] utilizationEnergyMission 139253.60441208
scalar OsgEarthNet.uav[10] utilizationEnergyMaintenance 76861.145172119
scalar OsgEarthNet.uav[10] utilizationEnergyCharge 216894.27270508
scalar OsgEarthNet.uav[10] utilizationEnergyOverdrawMission 0
scalar OsgEarthNet.uav[10] utilizationEnergyOverdrawMaintenance 0
scalar OsgEarthNet.uav[10] utilizationCountMissions 47
scalar OsgEarthNet.uav[10] utilizationCountManeuversMission 491
scalar OsgEarthNet.uav[10] utilizationCountManeuversMaintenance 94
scalar OsgEarthNet.uav[10] utilizationCountChargeState 47
scalar OsgEarthNet.uav[10] utilizationCountOverdrawnAfterMission 0
scalar OsgEarthNet.uav[10] utilizationCountIdleState 47
scalar OsgEarthNet.uav[10] utilizationFail 0
scalar OsgEarthNet.uav[10] simulationTime 259200
scalar OsgEarthNet.uav[11] utilizationSecMission 19451.89427628
scalar OsgEarthNet.uav[11] utilizationSecMaintenance 13352.212603317
scalar OsgEarthNet.uav[11] utilizationSecCharge 118929.87340652
scalar OsgEarthNet.uav[11] utilizationSecIdle 107466.01871388
scalar OsgEarthNet.uav[11] utilizationEnergyMission 89986.187004089
scalar OsgEarthNet.uav[11] utilizationEnergyMaintenance 62655.852104187
scalar OsgEarthNet.uav[11] utilizationEnergyCharge 150376.37670898
scalar OsgEarthNet.uav[11] utilizationEnergyOverdrawMission 0
scalar OsgEarthNet.uav[11] utilizationEnergyOverdrawMaintenance 0
scalar OsgEarthNet.uav[11] utilizationCountMissions 33
scalar OsgEarthNet.uav[11] utilizationCountManeuversMission 318
scalar OsgEarthNet.uav[11] utilizationCountManeuversMaintenance 66
scalar OsgEarthNet.uav[11] utilizationCountChargeState 33
scalar OsgEarthNet.uav[11] utilizationCountOverdrawnAfterMission 0
scalar OsgEarthNet.uav[11] utilizationCountIdleState 33
scalar OsgEarthNet.uav[11] utilizationFail 0
scalar OsgEarthNet.uav[11] simulationTime 259200
scalar OsgEarthNet.uav[12] utilizationSecMission 23648.810652783
scalar OsgEarthNet.uav[12] utilizationSecMaintenance 18638.03482665
scalar OsgEarthNet.uav[12] utilizationSecCharge 157000
scalar OsgEarthNet.uav[12] utilizationSecIdle 59913.153520567
scalar OsgEarthNet.uav[12] utilizationEnergyMission 109424.05871582
scalar OsgEarthNet.uav[12] utilizationEnergyMaintenance 87436.791069031
scalar OsgEarthNet.uav[12] utilizationEnergyCharge 196897.53662109
scalar OsgEarthNet.uav[12] utilizationEnergyOverdrawMission 0
scalar OsgEarthNet.uav[12] utilizationEnergyOverdrawMaintenance 0
scalar OsgEarthNet.uav[12] utilizationCountMissions 43
scalar OsgEarthNet.uav[12] utilizationCountManeuversMission 397
scalar OsgEarthNet.uav[12] utilizationCountManeuversMaintenance 86
scalar OsgEarthNet.uav[12] utilizationCountChargeState 43
scalar OsgEarthNet.uav[12] utilizationCountOverdrawnAfterMission 0
scalar OsgEarthNet.uav[12] utilizationCountIdleState 44
scalar OsgEarthNet.uav[12] utilizationFail 0
scalar OsgEarthNet.uav[12] simulationTime 259200
scalar OsgEarthNet.uav[13] utilizationSecMission 1358.1590677958
scalar OsgEarthNet.uav[13] utilizationSecMaintenance 644.74166154971
scalar OsgEarthNet.uav[13] utilizationSecCharge 7240
scalar OsgEarthNet.uav[13] utilizationSecIdle 249957.09827065
scalar OsgEarthNet.uav[13] utilizationEnergyMission 6192.1994476318
scalar OsgEarthNet.uav[13] utilizationEnergyMaintenance 2939.303150177
scalar OsgEarthNet.uav[13] utilizationEnergyCharge 8994.9584960938
scalar OsgEarthNet.uav[13] utilizationEnergyOverdrawMission 0
scalar OsgEarthNet.uav[13] utilizationEnergyOverdrawMaintenance 0
scalar OsgEarthNet.uav[13] utilizationCountMissions 2
scalar OsgEarthNet.uav[13] utilizationCountManeuversMission 21
scalar OsgEarthNet.uav[13] utilizationCountManeuversMaintenance 4
scalar OsgEarthNet.uav[13] utilizationCountChargeState 2
scalar OsgEarthNet.uav[13] utilizationCountOverdrawnAfterMission 0
scalar OsgEarthNet.uav[13] utilizationCountIdleState 3
scalar OsgEarthNet.uav[13] utilizationFail 0
scalar OsgEarthNet.uav[13] simulationTime 259200
scalar OsgEarthNet.uav[14] utilizationSecMission 28089.974257289
scalar OsgEarthNet.uav[14] utilizationSecMaintenance 18519.971882376
scalar OsgEarthNet.uav[14] utilizationSecCharge 169631.70025307
scalar OsgEarthNet.uav[14] utilizationSecIdle 42958.352607263
scalar OsgEarthNet.uav[14] utilizationEnergyMission 130672.66099548
scalar OsgEarthNet.uav[14] utilizationEnergyMaintenance 86090.547863007
scalar OsgEarthNet.uav[14] utilizationEnergyCharge 213936.28955078
scalar OsgEarthNet.uav[14] utilizationEnergyOverdrawMission 0
scalar OsgEarthNet.uav[14] utilizationEnergyOverdrawMaintenance 0
scalar OsgEarthNet.uav[14] utilizationCountMissions 47
scalar OsgEarthNet.uav[14] utilizationCountManeuversMission 461
scalar OsgEarthNet.uav[14] utilizationCountManeuversMaintenance 94
scalar OsgEarthNet.uav[14] utilizationCountChargeState 47
scalar OsgEarthNet.uav[14] utilizationCountOverdrawnAfterMission 0
scalar OsgEarthNet.uav[14] utilizationCountIdleState 47
scalar OsgEarthNet.uav[14] utilizationFail 0
scalar OsgEarthNet.uav[14] simulationTime 259200
scalar OsgEarthNet.uav[15] utilizationSecMission 26207.13097377
scalar OsgEarthNet.uav[15] utilizationSecMaintenance 18951.773995041
scalar OsgEarthNet.uav[15] utilizationSecCharge 166481.6686839
scalar OsgEarthNet.uav[15] utilizationSecIdle 47559.42534729
scalar OsgEarthNet.uav[15] utilizationEnergyMission 123572.55464172
scalar OsgEarthNet.uav[15] utilizationEnergyMaintenance 87767.247108459
scalar OsgEarthNet.uav[15] utilizationEnergyCharge 210033.25830078
scalar OsgEarthNet.uav[15] utilizationEnergyOverdrawMission 0
scalar OsgEarthNet.uav[15] utilizationEnergyOverdrawMaintenance 0
scalar OsgEarthNet.uav[15] utilizationCountMissions 46
scalar OsgEarthNet.uav[15] utilizationCountManeuversMission 437
scalar OsgEarthNet.uav[15] utilizationCountManeuversMaintenance 92
scalar OsgEarthNet.uav[15] utilizationCountChargeState 46
scalar OsgEarthNet.uav[15] utilizationCountOverdrawnAfterMission 0
scalar OsgEarthNet.uav[15] utilizationCountIdleState 46
scalar OsgEarthNet.uav[15] utilizationFail 0
scalar OsgEarthNet.uav[15] simulationTime 259200
scalar OsgEarthNet.uav[16] utilizationSecMission 454.87196921924
scalar OsgEarthNet.uav[16] utilizationSecMaintenance 587.37049424957
scalar OsgEarthNet.uav[16] utilizationSecCharge 3710
scalar OsgEarthNet.uav[16] utilizationSecIdle 254447.75653653
scalar OsgEarthNet.uav[16] utilizationEnergyMission 2061.1029510498
scalar OsgEarthNet.uav[16] utilizationEnergyMaintenance 2617.9287338257
scalar OsgEarthNet.uav[16] utilizationEnergyCharge 4679.0356445312
scalar OsgEarthNet.uav[16] utilizationEnergyOverdrawMission 0
scalar OsgEarthNet.uav[16] utilizationEnergyOverdrawMaintenance 0
scalar OsgEarthNet.uav[16] utilizationCountMissions 1
scalar OsgEarthNet.uav[16] utilizationCountManeuversMission 8
scalar OsgEarthNet.uav[16] utilizationCountManeuversMaintenance 2
scalar OsgEarthNet.uav[16] utilizationCountChargeState 1
scalar OsgEarthNet.uav[16] utilizationCountOverdrawnAfterMission 0
scalar OsgEarthNet.uav[16] utilizationCountIdleState 2
scalar OsgEarthNet.uav[16] utilizationFail 0
scalar OsgEarthNet.uav[16] simulationTime 259200
scalar OsgEarthNet.uav[17] utilizationSecMission 20695.759405925
scalar OsgEarthNet.uav[17] utilizationSecMaintenance 13757.75423284
scalar OsgEarthNet.uav[17] utilizationSecCharge 126149.17027502
scalar OsgEarthNet.uav[17] utilizationSecIdle 98597.315086215
scalar OsgEarthNet.uav[17] utilizationEnergyMission 96445.388023376
scalar OsgEarthNet.uav[17] utilizationEnergyMaintenance 63480.650131226
scalar OsgEarthNet.uav[17] utilizationEnergyCharge 159206.09277344
scalar OsgEarthNet.uav[17] utilizationEnergyOverdrawMission 0
scalar OsgEarthNet.uav[17] utilizationEnergyOverdrawMaintenance 0
scalar OsgEarthNet.uav[17] utilizationCountMissions 35
scalar OsgEarthNet.uav[17] utilizationCountManeuversMission 350
scalar OsgEarthNet.uav[17] utilizationCountManeuversMaintenance 70
scalar OsgEarthNet.uav[17] utilizationCountChargeState 35
scalar OsgEarthNet.uav[17] utilizationCountOverdrawnAfterMission 0
scalar OsgEarthNet.uav[17] utilizationCountIdleState 35
scalar OsgEarthNet.uav[17] utilizationFail 0
scalar OsgEarthNet.uav[17] simulationTime 259200
scalar OsgEarthNet.uav[18] utilizationSecMission 836.61593493339
scalar OsgEarthNet.uav[18] utilizationSecMaintenance 137.80524816792
scalar OsgEarthNet.uav[18] utilizationSecCharge 3560
scalar OsgEarthNet.uav[18] utilizationSecIdle 254665.5778169
scalar OsgEarthNet.uav[18] utilizationEnergyMission 3849.791809082
scalar OsgEarthNet.uav[18] utilizationEnergyMaintenance 618.95189666748
scalar OsgEarthNet.uav[18] utilizationEnergyCharge 4419.1962890625
scalar OsgEarthNet.uav[18] utilizationEnergyOverdrawMission 0
scalar OsgEarthNet.uav[18] utilizationEnergyOverdrawMaintenance 0
scalar OsgEarthNet.uav[18] utilizationCountMissions 1
scalar OsgEarthNet.uav[18] utilizationCountManeuversMission 13
scalar OsgEarthNet.uav[18] utilizationCountManeuversMaintenance 2
scalar OsgEarthNet.uav[18] utilizationCountChargeState 1
scalar OsgEarthNet.uav[18] utilizationCountOverdrawnAfterMission 0
scalar OsgEarthNet.uav[18] utilizationCountIdleState 2
scalar OsgEarthNet.uav[18] utilizationFail 0
scalar OsgEarthNet.uav[18] simulationTime 259200
scalar OsgEarthNet.uav[19] utilizationSecMission 23564.503105933
scalar OsgEarthNet.uav[19] utilizationSecMaintenance 14091.900380101
scalar OsgEarthNet.uav[19] utilizationSecCharge 137746.44648326
scalar OsgEarthNet.uav[19] utilizationSecIdle 83797.149030701
scalar OsgEarthNet.uav[19] utilizationEnergyMission 107547.37488556
scalar OsgEarthNet.uav[19] utilizationEnergyMaintenance 66523.208572388
scalar OsgEarthNet.uav[19] utilizationEnergyCharge 173449.62255859
scalar OsgEarthNet.uav[19] utilizationEnergyOverdrawMission 0
scalar OsgEarthNet.uav[19] utilizationEnergyOverdrawMaintenance 0
scalar OsgEarthNet.uav[19] utilizationCountMissions 38
scalar OsgEarthNet.uav[19] utilizationCountManeuversMission 380
scalar OsgEarthNet.uav[19] utilizationCountManeuversMaintenance 76
scalar OsgEarthNet.uav[19] utilizationCountChargeState 38
scalar OsgEarthNet.uav[19] utilizationCountOverdrawnAfterMission 0
scalar OsgEarthNet.uav[19] utilizationCountIdleState 38
scalar OsgEarthNet.uav[19] utilizationFail 0
scalar OsgEarthNet.uav[19] simulationTime 259200
scalar OsgEarthNet.uav[20] utilizationSecMission 27562.14891347
scalar OsgEarthNet.uav[20] utilizationSecMaintenance 16681.372835099
scalar OsgEarthNet.uav[20] utilizationSecCharge 163160
scalar OsgEarthNet.uav[20] utilizationSecIdle 51796.477251431
scalar OsgEarthNet.uav[20] utilizationEnergyMission 128988.9032402
scalar OsgEarthNet.uav[20] utilizationEnergyMaintenance 76866.76934433
scalar OsgEarthNet.uav[20] utilizationEnergyCharge 206019.22021484
scalar OsgEarthNet.uav[20] utilizationEnergyOverdrawMission 0
scalar OsgEarthNet.uav[20] utilizationEnergyOverdrawMaintenance 0
scalar OsgEarthNet.uav[20] utilizationCountMissions 44
scalar OsgEarthNet.uav[20] utilizationCountManeuversMission 444
scalar OsgEarthNet.uav[20] utilizationCountManeuversMaintenance 88
scalar OsgEarthNet.uav[20] utilizationCountChargeState 44
scalar OsgEarthNet.uav[20] utilizationCountOverdrawnAfterMission 0
scalar OsgEarthNet.uav[20] utilizationCountIdleState 45
scalar OsgEarthNet.uav[20] utilizationFail 0
scalar OsgEarthNet.uav[20] simulationTime 259200
scalar OsgEarthNet.uav[21] utilizationSecMission 26132.85677315
scalar OsgEarthNet.uav[21] utilizationSecMaintenance 18302.403281259
scalar OsgEarthNet.uav[21] utilizationSecCharge 164024.72064115
scalar OsgEarthNet.uav[21] utilizationSecIdle 50740.018304444
scalar OsgEarthNet.uav[21] utilizationEnergyMission 121041.87615204
scalar OsgEarthNet.uav[21] utilizationEnergyMaintenance 85582.770339966
scalar OsgEarthNet.uav[21] utilizationEnergyCharge 206573.17749023
scalar OsgEarthNet.uav[21] utilizationEnergyOverdrawMission 0
scalar OsgEarthNet.uav[21] utilizationEnergyOverdrawMaintenance 0
scalar OsgEarthNet.uav[21] utilizationCountMissions 45
scalar OsgEarthNet.uav[21] utilizationCountManeuversMission 422
scalar OsgEarthNet.uav[21] utilizationCountManeuversMaintenance 90
scalar OsgEarthNet.uav[21] utilizationCountChargeState 45
scalar OsgEarthNet.uav[21] utilizationCountOverdrawnAfterMission 0
scalar OsgEarthNet.uav[21] utilizationCountIdleState 45
scalar OsgEarthNet.uav[21] utilizationFail 0
scalar OsgEarthNet.uav[21] simulationTime 259200
scalar OsgEarthNet.uav[22] utilizationSecMission 4594.4707729846
scalar OsgEarthNet.uav[22] utilizationSecMaintenance 2446.0261953902
scalar OsgEarthNet.uav[22] utilizationSecCharge 23880.043683536
scalar OsgEarthNet.uav[22] utilizationSecIdle 228279.45834809
scalar OsgEarthNet.uav[22] utilizationEnergyMission 21499.551467895
scalar OsgEarthNet.uav[22] utilizationEnergyMaintenance 11264.376800537
scalar OsgEarthNet.uav[22] utilizationEnergyCharge 30939.734863281
scalar OsgEarthNet.uav[22] utilizationEnergyOverdrawMission 0
scalar OsgEarthNet.uav[22] utilizationEnergyOverdrawMaintenance 0
scalar OsgEarthNet.uav[22] utilizationCountMissions 7
scalar OsgEarthNet.uav[22] utilizationCountManeuversMission 78
scalar OsgEarthNet.uav[22] utilizationCountManeuversMaintenance 14
scalar OsgEarthNet.uav[22] utilizationCountChargeState 7
scalar OsgEarthNet.uav[22] utilizationCountOverdrawnAfterMission 0
scalar OsgEarthNet.uav[22] utilizationCountIdleState 7
scalar OsgEarthNet.uav[22] utilizationFail 0
scalar OsgEarthNet.uav[22] simulationTime 259200
scalar OsgEarthNet.uav[23] utilizationSecMission 366.54558454727
scalar OsgEarthNet.uav[23] utilizationSecMaintenance 628.82077470535
scalar OsgEarthNet.uav[23] utilizationSecCharge 3750
scalar OsgEarthNet.uav[23] utilizationSecIdle 254454.63264075
scalar OsgEarthNet.uav[23] utilizationEnergyMission 1727.4618530273
scalar OsgEarthNet.uav[23] utilizationEnergyMaintenance 3021.2456283569
scalar OsgEarthNet.uav[23] utilizationEnergyCharge 4748.7065429688
scalar OsgEarthNet.uav[23] utilizationEnergyOverdrawMission 0
scalar OsgEarthNet.uav[23] utilizationEnergyOverdrawMaintenance 0
scalar OsgEarthNet.uav[23] utilizationCountMissions 1
scalar OsgEarthNet.uav[23] utilizationCountManeuversMission 6
scalar OsgEarthNet.uav[23] utilizationCountManeuversMaintenance 2
scalar OsgEarthNet.uav[23] utilizationCountChargeState 1
scalar OsgEarthNet.uav[23] utilizationCountOverdrawnAfterMission 0
scalar OsgEarthNet.uav[23] utilizationCountIdleState 2
scalar OsgEarthNet.uav[23] utilizationFail 0
scalar OsgEarthNet.uav[23] simulationTime 259200
scalar OsgEarthNet.uav[24] utilizationSecMission 454.19906291044
scalar OsgEarthNet.uav[24] utilizationSecMaintenance 531.61543982806
scalar OsgEarthNet.uav[24] utilizationSecCharge 3650
scalar OsgEarthNet.uav[24] utilizationSecIdle 254564.18449726
scalar OsgEarthNet.uav[24] utilizationEnergyMission 2193.3484344482
scalar OsgEarthNet.uav[24] utilizationEnergyMaintenance 2375.0952377319
scalar OsgEarthNet.uav[24] utilizationEnergyCharge 4568.44140625
scalar OsgEarthNet.uav[24] utilizationEnergyOverdrawMission 0
scalar OsgEarthNet.uav[24] utilizationEnergyOverdrawMaintenance 0
scalar OsgEarthNet.uav[24] utilizationCountMissions 1
scalar OsgEarthNet.uav[24] utilizationCountManeuversMission 8
scalar OsgEarthNet.uav[24] utilizationCountManeuversMaintenance 2
scalar OsgEarthNet.uav[24] utilizationCountChargeState 1
scalar OsgEarthNet.uav[24] utilizationCountOverdrawnAfterMission 0
scalar OsgEarthNet.uav[24] utilizationCountIdleState 2
scalar OsgEarthNet.uav[24] utilizationFail 0
scalar OsgEarthNet.uav[24] simulationTime 259200
scalar OsgEarthNet.uav[25] utilizationSecMission 24082.611763626
scalar OsgEarthNet.uav[25] utilizationSecMaintenance 14636.212390593
scalar OsgEarthNet.uav[25] utilizationSecCharge 142085.71919238
scalar OsgEarthNet.uav[25] utilizationSecIdle 78395.455653403
scalar OsgEarthNet.uav[25] utilizationEnergyMission 111751.62141418
scalar OsgEarthNet.uav[25] utilizationEnergyMaintenance 68799.9793396
scalar OsgEarthNet.uav[25] utilizationEnergyCharge 179894.04443359
scalar OsgEarthNet.uav[25] utilizationEnergyOverdrawMission 0
scalar OsgEarthNet.uav[25] utilizationEnergyOverdrawMaintenance 0
scalar OsgEarthNet.uav[25] utilizationCountMissions 39
scalar OsgEarthNet.uav[25] utilizationCountManeuversMission 388
scalar OsgEarthNet.uav[25] utilizationCountManeuversMaintenance 78
scalar OsgEarthNet.uav[25] utilizationCountChargeState 39
scalar OsgEarthNet.uav[25] utilizationCountOverdrawnAfterMission 0
scalar OsgEarthNet.uav[25] utilizationCountIdleState 39
scalar OsgEarthNet.uav[25] utilizationFail 0
scalar OsgEarthNet.uav[25] simulationTime 259200
scalar OsgEarthNet.uav[26] utilizationSecMission 622.99605640573
scalar OsgEarthNet.uav[26] utilizationSecMaintenance 319.78771796751
scalar OsgEarthNet.uav[26] utilizationSecCharge 3610
scalar OsgEarthNet.uav[26] utilizationSecIdle 254647.21522563
scalar OsgEarthNet.uav[26] utilizationEnergyMission 2974.3327026367
scalar OsgEarthNet.uav[26] utilizationEnergyMaintenance 1560.2535514832
scalar OsgEarthNet.uav[26] utilizationEnergyCharge 4534.5830078125
scalar OsgEarthNet.uav[26] utilizationEnergyOverdrawMission 0
scalar OsgEarthNet.uav[26] utilizationEnergyOverdrawMaintenance 0
scalar OsgEarthNet.uav[26] utilizationCountMissions 1
scalar OsgEarthNet.uav[26] utilizationCountManeuversMission 9
scalar OsgEarthNet.uav[26] utilizationCountManeuversMaintenance 2
scalar OsgEarthNet.uav[26] utilizationCountChargeState 1
scalar OsgEarthNet.uav[26] utilizationCountOverdrawnAfterMission 0
scalar OsgEarthNet.uav[26] utilizationCountIdleState 2
scalar OsgEarthNet.uav[26] utilizationFail 0
scalar OsgEarthNet.uav[26] simulationTime 259200
scalar OsgEarthNet.uav[27] utilizationSecMission 16641.267423187
scalar OsgEarthNet.uav[27] utilizationSecMaintenance 8868.2757293114
scalar OsgEarthNet.uav[27] utilizationSecCharge 93590
scalar OsgEarthNet.uav[27] utilizationSecIdle 140100.4558475
scalar OsgEarthNet.uav[27] utilizationEnergyMission 76555.9009552
scalar OsgEarthNet.uav[27] utilizationEnergyMaintenance 40304.888828278
scalar OsgEarthNet.uav[27] utilizationEnergyCharge 116917.7890625
scalar OsgEarthNet.uav[27] utilizationEnergyOverdrawMission 0
scalar OsgEarthNet.uav[27] utilizationEnergyOverdrawMaintenance 0
scalar OsgEarthNet.uav[27] utilizationCountMissions 26
scalar OsgEarthNet.uav[27] utilizationCountManeuversMission 275
scalar OsgEarthNet.uav[27] utilizationCountManeuversMaintenance 52
scalar OsgEarthNet.uav[27] utilizationCountChargeState 26
scalar OsgEarthNet.uav[27] utilizationCountOverdrawnAfterMission 0
scalar OsgEarthNet.uav[27] utilizationCountIdleState 27
scalar OsgEarthNet.uav[27] utilizationFail 0
scalar OsgEarthNet.uav[27] simulationTime 259200
scalar OsgEarthNet.uav[28] utilizationSecMission 30356.407484668
scalar OsgEarthNet.uav[28] utilizationSecMaintenance 18081.834469286
scalar OsgEarthNet.uav[28] utilizationSecCharge 176639.75704605
scalar OsgEarthNet.uav[28] utilizationSecIdle 34122
scalar OsgEarthNet.uav[28] utilizationEnergyMission 140436.21233169
scalar OsgEarthNet.uav[28] utilizationEnergyMaintenance 83754.334011078
scalar OsgEarthNet.uav[28] utilizationEnergyCharge 222265.7175293
scalar OsgEarthNet.uav[28] utilizationEnergyOverdrawMission 0
scalar OsgEarthNet.uav[28] utilizationEnergyOverdrawMaintenance 0
scalar OsgEarthNet.uav[28] utilizationCountMissions 49
scalar OsgEarthNet.uav[28] utilizationCountManeuversMission 495
scalar OsgEarthNet.uav[28] utilizationCountManeuversMaintenance 97
scalar OsgEarthNet.uav[28] utilizationCountChargeState 49
scalar OsgEarthNet.uav[28] utilizationCountOverdrawnAfterMission 0
scalar OsgEarthNet.uav[28] utilizationCountIdleState 49
scalar OsgEarthNet.uav[28] utilizationFail 0
scalar OsgEarthNet.uav[28] simulationTime 259200
scalar OsgEarthNet.uav[29] utilizationSecMission 650.68693590098
scalar OsgEarthNet.uav[29] utilizationSecMaintenance 350.31285707965
scalar OsgEarthNet.uav[29] utilizationSecCharge 3590
scalar OsgEarthNet.uav[29] utilizationSecIdle 254608.99920702
scalar OsgEarthNet.uav[29] utilizationEnergyMission 2762.2528381348
scalar OsgEarthNet.uav[29] utilizationEnergyMaintenance 1732.5562667847
scalar OsgEarthNet.uav[29] utilizationEnergyCharge 4494.8129882812
scalar OsgEarthNet.uav[29] utilizationEnergyOverdrawMission 0
scalar OsgEarthNet.uav[29] utilizationEnergyOverdrawMaintenance 0
scalar OsgEarthNet.uav[29] utilizationCountMissions 1
scalar OsgEarthNet.uav[29] utilizationCountManeuversMission 9
scalar OsgEarthNet.uav[29] utilizationCountManeuversMaintenance 2
scalar OsgEarthNet.uav[29] utilizationCountChargeState 1
scalar OsgEarthNet.uav[29] utilizationCountOverdrawnAfterMission 0
scalar OsgEarthNet.uav[29] utilizationCountIdleState 2
scalar OsgEarthNet.uav[29] utilizationFail 0
scalar OsgEarthNet.uav[29] simulationTime 259200
scalar OsgEarthNet.uav[30] utilizationSecMission 313.66140879233
scalar OsgEarthNet.uav[30] utilizationSecMaintenance 473.03391658586
scalar OsgEarthNet.uav[30] utilizationSecCharge 3270
scalar OsgEarthNet.uav[30] utilizationSecIdle 255143.30367462
scalar OsgEarthNet.uav[30] utilizationEnergyMission 1478.8917694092
scalar OsgEarthNet.uav[30] utilizationEnergyMaintenance 2445.3235092163
scalar OsgEarthNet.uav[30] utilizationEnergyCharge 3924.2182617188
scalar OsgEarthNet.uav[30] utilizationEnergyOverdrawMission 0
scalar OsgEarthNet.uav[30] utilizationEnergyOverdrawMaintenance 0
scalar OsgEarthNet.uav[30] utilizationCountMissions 1
scalar OsgEarthNet.uav[30] utilizationCountManeuversMission 5
scalar OsgEarthNet.uav[30] utilizationCountManeuversMaintenance 2
scalar OsgEarthNet.uav[30] utilizationCountChargeState 1
scalar OsgEarthNet.uav[30] utilizationCountOverdrawnAfterMission 0
scalar OsgEarthNet.uav[30] utilizationCountIdleState 2
scalar OsgEarthNet.uav[30] utilizationFail 0
scalar OsgEarthNet.uav[30] simulationTime 259200
scalar OsgEarthNet.uav[31] utilizationSecMission 8344.8012204579
scalar OsgEarthNet.uav[31] utilizationSecMaintenance 7988.8765605059
scalar OsgEarthNet.uav[31] utilizationSecCharge 60980
scalar OsgEarthNet.uav[31] utilizationSecIdle 181886.32121904
scalar OsgEarthNet.uav[31] utilizationEnergyMission 38110.858924866
scalar OsgEarthNet.uav[31] utilizationEnergyMaintenance 37869.053028107
scalar OsgEarthNet.uav[31] utilizationEnergyCharge 75874.693359375
scalar OsgEarthNet.uav[31] utilizationEnergyOverdrawMission 0
scalar OsgEarthNet.uav[31] utilizationEnergyOverdrawMaintenance 0
scalar OsgEarthNet.uav[31] utilizationCountMissions 17
scalar OsgEarthNet.uav[31] utilizationCountManeuversMission 140
scalar OsgEarthNet.uav[31] utilizationCountManeuversMaintenance 34
scalar OsgEarthNet.uav[31] utilizationCountChargeState 17
scalar OsgEarthNet.uav[31] utilizationCountOverdrawnAfterMission 0
scalar OsgEarthNet.uav[31] utilizationCountIdleState 18
scalar OsgEarthNet.uav[31] utilizationFail 0
scalar OsgEarthNet.uav[31] simulationTime 259200
scalar OsgEarthNet.uav[32] utilizationSecMission 750.20472747826
scalar OsgEarthNet.uav[32] utilizationSecMaintenance 255.5651663541
scalar OsgEarthNet.uav[32] utilizationSecCharge 3690
scalar OsgEarthNet.uav[32] utilizationSecIdle 254504.22910617
scalar OsgEarthNet.uav[32] utilizationEnergyMission 3434.0883178711
scalar OsgEarthNet.uav[32] utilizationEnergyMaintenance 1183.8650627136
scalar OsgEarthNet.uav[32] utilizationEnergyCharge 4617.9560546875
scalar OsgEarthNet.uav[32] utilizationEnergyOverdrawMission 0
scalar OsgEarthNet.uav[32] utilizationEnergyOverdrawMaintenance 0
scalar OsgEarthNet.uav[32] utilizationCountMissions 1
scalar OsgEarthNet.uav[32] utilizationCountManeuversMission 11
scalar OsgEarthNet.uav[32] utilizationCountManeuversMaintenance 2
scalar OsgEarthNet.uav[32] utilizationCountChargeState 1
scalar OsgEarthNet.uav[32] utilizationCountOverdrawnAfterMission 0
scalar OsgEarthNet.uav[32] utilizationCountIdleState 2
scalar OsgEarthNet.uav[32] utilizationFail 0
scalar OsgEarthNet.uav[32] simulationTime 259200
scalar OsgEarthNet.uav[33] utilizationSecMission 9940.1296461093
scalar OsgEarthNet.uav[33] utilizationSecMaintenance 7411.0953950216
scalar OsgEarthNet.uav[33] utilizationSecCharge 64230
scalar OsgEarthNet.uav[33] utilizationSecIdle 177618.77395887
scalar OsgEarthNet.uav[33] utilizationEnergyMission 45990.926818848
scalar OsgEarthNet.uav[33] utilizationEnergyMaintenance 33952.012424469
scalar OsgEarthNet.uav[33] utilizationEnergyCharge 80041.284179688
scalar OsgEarthNet.uav[33] utilizationEnergyOverdrawMission 0
scalar OsgEarthNet.uav[33] utilizationEnergyOverdrawMaintenance 0
scalar OsgEarthNet.uav[33] utilizationCountMissions 18
scalar OsgEarthNet.uav[33] utilizationCountManeuversMission 164
scalar OsgEarthNet.uav[33] utilizationCountManeuversMaintenance 36
scalar OsgEarthNet.uav[33] utilizationCountChargeState 18
scalar OsgEarthNet.uav[33] utilizationCountOverdrawnAfterMission 0
scalar OsgEarthNet.uav[33] utilizationCountIdleState 19
scalar OsgEarthNet.uav[33] utilizationFail 0
scalar OsgEarthNet.uav[33] simulationTime 259200
scalar OsgEarthNet.uav[34] utilizationSecMission 26390.547493
scalar OsgEarthNet.uav[34] utilizationSecMaintenance 17091.64536878
scalar OsgEarthNet.uav[34] utilizationSecCharge 158454.04711603
scalar OsgEarthNet.uav[34] utilizationSecIdle 57263.759022191
scalar OsgEarthNet.uav[34] utilizationEnergyMission 122212.41519928
scalar OsgEarthNet.uav[34] utilizationEnergyMaintenance 79315.733459473
scalar OsgEarthNet.uav[34] utilizationEnergyCharge 199396.88964844
scalar OsgEarthNet.uav[34] utilizationEnergyOverdrawMission 0
scalar OsgEarthNet.uav[34] utilizationEnergyOverdrawMaintenance 0
scalar OsgEarthNet.uav[34] utilizationCountMissions 44
scalar OsgEarthNet.uav[34] utilizationCountManeuversMission 432
scalar OsgEarthNet.uav[34] utilizationCountManeuversMaintenance 88
scalar OsgEarthNet.uav[34] utilizationCountChargeState 44
scalar OsgEarthNet.uav[34] utilizationCountOverdrawnAfterMission 0
scalar OsgEarthNet.uav[34] utilizationCountIdleState 44
scalar OsgEarthNet.uav[34] utilizationFail 0
scalar OsgEarthNet.uav[34] simulationTime 259200
scalar OsgEarthNet.uav[35] utilizationSecMission 9010.0711434071
scalar OsgEarthNet.uav[35] utilizationSecMaintenance 6044.7978800229
scalar OsgEarthNet.uav[35] utilizationSecCharge 54095.29316253
scalar OsgEarthNet.uav[35] utilizationSecIdle 190049.83681404
scalar OsgEarthNet.uav[35] utilizationEnergyMission 40835.299346924
scalar OsgEarthNet.uav[35] utilizationEnergyMaintenance 27782.235607147
scalar OsgEarthNet.uav[35] utilizationEnergyCharge 68604.004394531
scalar OsgEarthNet.uav[35] utilizationEnergyOverdrawMission 0
scalar OsgEarthNet.uav[35] utilizationEnergyOverdrawMaintenance 0
scalar OsgEarthNet.uav[35] utilizationCountMissions 15
scalar OsgEarthNet.uav[35] utilizationCountManeuversMission 145
scalar OsgEarthNet.uav[35] utilizationCountManeuversMaintenance 30
scalar OsgEarthNet.uav[35] utilizationCountChargeState 15
scalar OsgEarthNet.uav[35] utilizationCountOverdrawnAfterMission 0
scalar OsgEarthNet.uav[35] utilizationCountIdleState 15
scalar OsgEarthNet.uav[35] utilizationFail 0
scalar OsgEarthNet.uav[35] simulationTime 259200
scalar OsgEarthNet.uav[36] utilizationSecMission 25663.185501496
scalar OsgEarthNet.uav[36] utilizationSecMaintenance 19252.795228776
scalar OsgEarthNet.uav[36] utilizationSecCharge 163160
scalar OsgEarthNet.uav[36] utilizationSecIdle 51124.018269728
scalar OsgEarthNet.uav[36] utilizationEnergyMission 118483.53479767
scalar OsgEarthNet.uav[36] utilizationEnergyMaintenance 89797.844431691
scalar OsgEarthNet.uav[36] utilizationEnergyCharge 204191.44213867
scalar OsgEarthNet.uav[36] utilizationEnergyOverdrawMission 0
scalar OsgEarthNet.uav[36] utilizationEnergyOverdrawMaintenance 0
scalar OsgEarthNet.uav[36] utilizationCountMissions 46
scalar OsgEarthNet.uav[36] utilizationCountManeuversMission 428
scalar OsgEarthNet.uav[36] utilizationCountManeuversMaintenance 92
scalar OsgEarthNet.uav[36] utilizationCountChargeState 45
scalar OsgEarthNet.uav[36] utilizationCountOverdrawnAfterMission 0
scalar OsgEarthNet.uav[36] utilizationCountIdleState 46
scalar OsgEarthNet.uav[36] utilizationFail 0
scalar OsgEarthNet.uav[36] simulationTime 259200
scalar OsgEarthNet.uav[37] utilizationSecMission 25342.938867856
scalar OsgEarthNet.uav[37] utilizationSecMaintenance 18191.226132627
scalar OsgEarthNet.uav[37] utilizationSecCharge 159433.7467767
scalar OsgEarthNet.uav[37] utilizationSecIdle 56232.087222815
scalar OsgEarthNet.uav[37] utilizationEnergyMission 117026.44434357
scalar OsgEarthNet.uav[37] utilizationEnergyMaintenance 83571.353469849
scalar OsgEarthNet.uav[37] utilizationEnergyCharge 200245.91503906
scalar OsgEarthNet.uav[37] utilizationEnergyOverdrawMission 0
scalar OsgEarthNet.uav[37] utilizationEnergyOverdrawMaintenance 0
scalar OsgEarthNet.uav[37] utilizationCountMissions 44
scalar OsgEarthNet.uav[37] utilizationCountManeuversMission 413
scalar OsgEarthNet.uav[37] utilizationCountManeuversMaintenance 88
scalar OsgEarthNet.uav[37] utilizationCountChargeState 44
scalar OsgEarthNet.uav[37] utilizationCountOverdrawnAfterMission 0
scalar OsgEarthNet.uav[37] utilizationCountIdleState 44
scalar OsgEarthNet.uav[37] utilizationFail 0
scalar OsgEarthNet.uav[37] simulationTime 259200
scalar OsgEarthNet.uav[38] utilizationSecMission 30218.505311083
scalar OsgEarthNet.uav[38] utilizationSecMaintenance 16424.637443854
scalar OsgEarthNet.uav[38] utilizationSecCharge 171850
scalar OsgEarthNet.uav[38] utilizationSecIdle 40706.856245062
scalar OsgEarthNet.uav[38] utilizationEnergyMission 138925.38851166
scalar OsgEarthNet.uav[38] utilizationEnergyMaintenance 76422.785476685
scalar OsgEarthNet.uav[38] utilizationEnergyCharge 215597.54541016
scalar OsgEarthNet.uav[38] utilizationEnergyOverdrawMission 0
scalar OsgEarthNet.uav[38] utilizationEnergyOverdrawMaintenance 0
scalar OsgEarthNet.uav[38] utilizationCountMissions 47
scalar OsgEarthNet.uav[38] utilizationCountManeuversMission 490
scalar OsgEarthNet.uav[38] utilizationCountManeuversMaintenance 94
scalar OsgEarthNet.uav[38] utilizationCountChargeState 47
scalar OsgEarthNet.uav[38] utilizationCountOverdrawnAfterMission 0
scalar OsgEarthNet.uav[38] utilizationCountIdleState 48
scalar OsgEarthNet.uav[38] utilizationFail 0
scalar OsgEarthNet.uav[38] simulationTime 259200
scalar OsgEarthNet.uav[39] utilizationSecMission 682.66907384813
scalar OsgEarthNet.uav[39] utilizationSecMaintenance 433.65755557869
scalar OsgEarthNet.uav[39] utilizationSecCharge 3780
scalar OsgEarthNet.uav[39] utilizationSecIdle 254303.67237057
scalar OsgEarthNet.uav[39] utilizationEnergyMission 2944.6526031494
scalar OsgEarthNet.uav[39] utilizationEnergyMaintenance 1912.5260238647
scalar OsgEarthNet.uav[39] utilizationEnergyCharge 4788.7783203125
scalar OsgEarthNet.uav[39] utilizationEnergyOverdrawMission 0
scalar OsgEarthNet.uav[39] utilizationEnergyOverdrawMaintenance 0
scalar OsgEarthNet.uav[39] utilizationCountMissions 1
scalar OsgEarthNet.uav[39] utilizationCountManeuversMission 11
scalar OsgEarthNet.uav[39] utilizationCountManeuversMaintenance 2
scalar OsgEarthNet.uav[39] utilizationCountChargeState 1
scalar OsgEarthNet.uav[39] utilizationCountOverdrawnAfterMission 0
scalar OsgEarthNet.uav[39] utilizationCountIdleState 2
scalar OsgEarthNet.uav[39] utilizationFail 0
scalar OsgEarthNet.uav[39] simulationTime 259200
scalar OsgEarthNet.uav[40] utilizationSecMission 3515.0001985427
scalar OsgEarthNet.uav[40] utilizationSecMaintenance 2314.2473908669
scalar OsgEarthNet.uav[40] utilizationSecCharge 21790
scalar OsgEarthNet.uav[40] utilizationSecIdle 231580.75141059
scalar OsgEarthNet.uav[40] utilizationEnergyMission 16118.036170959
scalar OsgEarthNet.uav[40] utilizationEnergyMaintenance 10866.158588409
scalar OsgEarthNet.uav[40] utilizationEnergyCharge 27319.633789062
scalar OsgEarthNet.uav[40] utilizationEnergyOverdrawMission 0
scalar OsgEarthNet.uav[40] utilizationEnergyOverdrawMaintenance 0
scalar OsgEarthNet.uav[40] utilizationCountMissions 6
scalar OsgEarthNet.uav[40] utilizationCountManeuversMission 56
scalar OsgEarthNet.uav[40] utilizationCountManeuversMaintenance 12
scalar OsgEarthNet.uav[40] utilizationCountChargeState 6
scalar OsgEarthNet.uav[40] utilizationCountOverdrawnAfterMission 0
scalar OsgEarthNet.uav[40] utilizationCountIdleState 7
scalar OsgEarthNet.uav[40] utilizationFail 0
scalar OsgEarthNet.uav[40] simulationTime 259200
scalar OsgEarthNet.uav[41] utilizationSecMission 528.55000878666
scalar OsgEarthNet.uav[41] utilizationSecMaintenance 413.64453676047
scalar OsgEarthNet.uav[41] utilizationSecCharge 3430
scalar OsgEarthNet.uav[41] utilizationSecIdle 254827.80445445
scalar OsgEarthNet.uav[41] utilizationEnergyMission 2356.7696304321
scalar OsgEarthNet.uav[41] utilizationEnergyMaintenance 1841.0406723022
scalar OsgEarthNet.uav[41] utilizationEnergyCharge 4197.8115234375
scalar OsgEarthNet.uav[41] utilizationEnergyOverdrawMission 0
scalar OsgEarthNet.uav[41] utilizationEnergyOverdrawMaintenance 0
scalar OsgEarthNet.uav[41] utilizationCountMissions 1
scalar OsgEarthNet.uav[41] utilizationCountManeuversMission 10
scalar OsgEarthNet.uav[41] utilizationCountManeuversMaintenance 2
scalar OsgEarthNet.uav[41] utilizationCountChargeState 1
scalar OsgEarthNet.uav[41] utilizationCountOverdrawnAfterMission 0
scalar OsgEarthNet.uav[41] utilizationCountIdleState 2
scalar OsgEarthNet.uav[41] utilizationFail 0
scalar OsgEarthNet.uav[41] simulationTime 259200
scalar OsgEarthNet.uav[42] utilizationSecMission 887.1741082606
scalar OsgEarthNet.uav[42] utilizationSecMaintenance 148.2728194454
scalar OsgEarthNet.uav[42] utilizationSecCharge 3760
scalar OsgEarthNet.uav[42] utilizationSecIdle 254404.55207229
scalar OsgEarthNet.uav[42] utilizationEnergyMission 4164.8780822754
scalar OsgEarthNet.uav[42] utilizationEnergyMaintenance 687.20668792724
scalar OsgEarthNet.uav[42] utilizationEnergyCharge 4761.7763671875
scalar OsgEarthNet.uav[42] utilizationEnergyOverdrawMission 0
scalar OsgEarthNet.uav[42] utilizationEnergyOverdrawMaintenance 0
scalar OsgEarthNet.uav[42] utilizationCountMissions 1
scalar OsgEarthNet.uav[42] utilizationCountManeuversMission 14
scalar OsgEarthNet.uav[42] utilizationCountManeuversMaintenance 2
scalar OsgEarthNet.uav[42] utilizationCountChargeState 1
scalar OsgEarthNet.uav[42] utilizationCountOverdrawnAfterMission 0
scalar OsgEarthNet.uav[42] utilizationCountIdleState 2
scalar OsgEarthNet.uav[42] utilizationFail 0
scalar OsgEarthNet.uav[42] simulationTime 259200
scalar OsgEarthNet.uav[43] utilizationSecMission 30278.571354359
scalar OsgEarthNet.uav[43] utilizationSecMaintenance 19559.041069365
scalar OsgEarthNet.uav[43] utilizationSecCharge 180480.38657628
scalar OsgEarthNet.uav[43] utilizationSecIdle 28882
scalar OsgEarthNet.uav[43] utilizationEnergyMission 140335.33079529
scalar OsgEarthNet.uav[43] utilizationEnergyMaintenance 89576.304141998
scalar OsgEarthNet.uav[43] utilizationEnergyCharge 227226.40588379
scalar OsgEarthNet.uav[43] utilizationEnergyOverdrawMission 0
scalar OsgEarthNet.uav[43] utilizationEnergyOverdrawMaintenance 0
scalar OsgEarthNet.uav[43] utilizationCountMissions 50
scalar OsgEarthNet.uav[43] utilizationCountManeuversMission 501
scalar OsgEarthNet.uav[43] utilizationCountManeuversMaintenance 99
scalar OsgEarthNet.uav[43] utilizationCountChargeState 50
scalar OsgEarthNet.uav[43] utilizationCountOverdrawnAfterMission 0
scalar OsgEarthNet.uav[43] utilizationCountIdleState 50
scalar OsgEarthNet.uav[43] utilizationFail 0
scalar OsgEarthNet.uav[43] simulationTime 259200
scalar OsgEarthNet.uav[44] utilizationSecMission 26955.416472926
scalar OsgEarthNet.uav[44] utilizationSecMaintenance 17120.385492843
scalar OsgEarthNet.uav[44] utilizationSecCharge 162980
scalar OsgEarthNet.uav[44] utilizationSecIdle 52144.19703423
scalar OsgEarthNet.uav[44] utilizationEnergyMission 125623.92887115
scalar OsgEarthNet.uav[44] utilizationEnergyMaintenance 78935.34022522
scalar OsgEarthNet.uav[44] utilizationEnergyCharge 203983.19580078
scalar OsgEarthNet.uav[44] utilizationEnergyOverdrawMission 0
scalar OsgEarthNet.uav[44] utilizationEnergyOverdrawMaintenance 0
scalar OsgEarthNet.uav[44] utilizationCountMissions 45
scalar OsgEarthNet.uav[44] utilizationCountManeuversMission 438
scalar OsgEarthNet.uav[44] utilizationCountManeuversMaintenance 90
scalar OsgEarthNet.uav[44] utilizationCountChargeState 45
scalar OsgEarthNet.uav[44] utilizationCountOverdrawnAfterMission 0
scalar OsgEarthNet.uav[44] utilizationCountIdleState 46
scalar OsgEarthNet.uav[44] utilizationFail 0
scalar OsgEarthNet.uav[44] simulationTime 259200
scalar OsgEarthNet.uav[45] utilizationSecMission 750.20472747826
scalar OsgEarthNet.uav[45] utilizationSecMaintenance 255.5651663541
scalar OsgEarthNet.uav[45] utilizationSecCharge 3720
scalar OsgEarthNet.uav[45] utilizationSecIdle 254474.22910617
scalar OsgEarthNet.uav[45] utilizationEnergyMission 3585.7848358154
scalar OsgEarthNet.uav[45] utilizationEnergyMaintenance 1098.4259757996
scalar OsgEarthNet.uav[45] utilizationEnergyCharge 4684.20703125
scalar OsgEarthNet.uav[45] utilizationEnergyOverdrawMission 0
scalar OsgEarthNet.uav[45] utilizationEnergyOverdrawMaintenance 0
scalar OsgEarthNet.uav[45] utilizationCountMissions 1
scalar OsgEarthNet.uav[45] utilizationCountManeuversMission 11
scalar OsgEarthNet.uav[45] utilizationCountManeuversMaintenance 2
scalar OsgEarthNet.uav[45] utilizationCountChargeState 1
scalar OsgEarthNet.uav[45] utilizationCountOverdrawnAfterMission 0
scalar OsgEarthNet.uav[45] utilizationCountIdleState 2
scalar OsgEarthNet.uav[45] utilizationFail 0
scalar OsgEarthNet.uav[45] simulationTime 259200
scalar OsgEarthNet.uav[46] utilizationSecMission 810.18983979977
scalar OsgEarthNet.uav[46] utilizationSecMaintenance 1115.2042940076
scalar OsgEarthNet.uav[46] utilizationSecCharge 7000
scalar OsgEarthNet.uav[46] utilizationSecIdle 250274.60486619
scalar OsgEarthNet.uav[46] utilizationEnergyMission 3659.9417076111
scalar OsgEarthNet.uav[46] utilizationEnergyMaintenance 5096.2809791565
scalar OsgEarthNet.uav[46] utilizationEnergyCharge 8649.8203125
scalar OsgEarthNet.uav[46] utilizationEnergyOverdrawMission 0
scalar OsgEarthNet.uav[46] utilizationEnergyOverdrawMaintenance 0
scalar OsgEarthNet.uav[46] utilizationCountMissions 2
scalar OsgEarthNet.uav[46] utilizationCountManeuversMission 15
scalar OsgEarthNet.uav[46] utilizationCountManeuversMaintenance 4
scalar OsgEarthNet.uav[46] utilizationCountChargeState 2
scalar OsgEarthNet.uav[46] utilizationCountOverdrawnAfterMission 0
scalar OsgEarthNet.uav[46] utilizationCountIdleState 3
scalar OsgEarthNet.uav[46] utilizationFail 0
scalar OsgEarthNet.uav[46] simulationTime 259200
scalar OsgEarthNet.uav[47] utilizationSecMission 6098.7789045803
scalar OsgEarthNet.uav[47] utilizationSecMaintenance 4818.877688572
scalar OsgEarthNet.uav[47] utilizationSecCharge 40190
scalar OsgEarthNet.uav[47] utilizationSecIdle 208092.34240685
scalar OsgEarthNet.uav[47] utilizationEnergyMission 28045.777275085
scalar OsgEarthNet.uav[47] utilizationEnergyMaintenance 22465.002731323
scalar OsgEarthNet.uav[47] utilizationEnergyCharge 50351.465332031
scalar OsgEarthNet.uav[47] utilizationEnergyOverdrawMission 0
scalar OsgEarthNet.uav[47] utilizationEnergyOverdrawMaintenance 0
scalar OsgEarthNet.uav[47] utilizationCountMissions 11
scalar OsgEarthNet.uav[47] utilizationCountManeuversMission 101
scalar OsgEarthNet.uav[47] utilizationCountManeuversMaintenance 22
scalar OsgEarthNet.uav[47] utilizationCountChargeState 11
scalar OsgEarthNet.uav[47] utilizationCountOverdrawnAfterMission 0
scalar OsgEarthNet.uav[47] utilizationCountIdleState 12
scalar OsgEarthNet.uav[47] utilizationFail 0
scalar OsgEarthNet.uav[47] simulationTime 259200
scalar OsgEarthNet.uav[48] utilizationSecMission 621.17604176187
scalar OsgEarthNet.uav[48] utilizationSecMaintenance 313.76167006775
scalar OsgEarthNet.uav[48] utilizationSecCharge 3560
scalar OsgEarthNet.uav[48] utilizationSecIdle 254705.06128817
scalar OsgEarthNet.uav[48] utilizationEnergyMission 2930.6659927368
scalar OsgEarthNet.uav[48] utilizationEnergyMaintenance 1465.8948478699
scalar OsgEarthNet.uav[48] utilizationEnergyCharge 4396.5625
scalar OsgEarthNet.uav[48] utilizationEnergyOverdrawMission 0
scalar OsgEarthNet.uav[48] utilizationEnergyOverdrawMaintenance 0
scalar OsgEarthNet.uav[48] utilizationCountMissions 1
scalar OsgEarthNet.uav[48] utilizationCountManeuversMission 12
scalar OsgEarthNet.uav[48] utilizationCountManeuversMaintenance 2
scalar OsgEarthNet.uav[48] utilizationCountChargeState 1
scalar OsgEarthNet.uav[48] utilizationCountOverdrawnAfterMission 0
scalar OsgEarthNet.uav[48] utilizationCountIdleState 2
scalar OsgEarthNet.uav[48] utilizationFail 0
scalar OsgEarthNet.uav[48] simulationTime 259200
scalar OsgEarthNet.uav[49] utilizationSecMission 616.06593675614
scalar OsgEarthNet.uav[49] utilizationSecMaintenance 462.29459772748
scalar OsgEarthNet.uav[49] utilizationSecCharge 3850
scalar OsgEarthNet.uav[49] utilizationSecIdle 254271.63846552
scalar OsgEarthNet.uav[49] utilizationEnergyMission 2806.8647460937
scalar OsgEarthNet.uav[49] utilizationEnergyMaintenance 2020.0644760132
scalar OsgEarthNet.uav[49] utilizationEnergyCharge 4900.552734375
scalar OsgEarthNet.uav[49] utilizationEnergyOverdrawMission 0
scalar OsgEarthNet.uav[49] utilizationEnergyOverdrawMaintenance 0
scalar OsgEarthNet.uav[49] utilizationCountMissions 1
scalar OsgEarthNet.uav[49] utilizationCountManeuversMission 10
scalar OsgEarthNet.uav[49] utilizationCountManeuversMaintenance 2
scalar OsgEarthNet.uav[49] utilizationCountChargeState 1
scalar OsgEarthNet.uav[49] utilizationCountOverdrawnAfterMission 0
scalar OsgEarthNet.uav[49] utilizationCountIdleState 2
scalar OsgEarthNet.uav[49] utilizationFail 0
scalar OsgEarthNet.uav[49] simulationTime 259200
scalar OsgEarthNet.uav[50] utilizationSecMission 760.62515258028
scalar OsgEarthNet.uav[50] utilizationSecMaintenance 202.91610409653
scalar OsgEarthNet.uav[50] utilizationSecCharge 3620
scalar OsgEarthNet.uav[50] utilizationSecIdle 254616.45774332
scalar OsgEarthNet.uav[50] utilizationEnergyMission 3587.8452453613
scalar OsgEarthNet.uav[50] utilizationEnergyMaintenance 939.45723724365
scalar OsgEarthNet.uav[50] utilizationEnergyCharge 4527.30078125
scalar OsgEarthNet.uav[50] utilizationEnergyOverdrawMission 0
scalar OsgEarthNet.uav[50] utilizationEnergyOverdrawMaintenance 0
scalar OsgEarthNet.uav[50] utilizationCountMissions 1
scalar OsgEarthNet.uav[50] utilizationCountManeuversMission 12
scalar OsgEarthNet.uav[50] utilizationCountManeuversMaintenance 2
scalar OsgEarthNet.uav[50] utilizationCountChargeState 1
scalar OsgEarthNet.uav[50] utilizationCountOverdrawnAfterMission 0
scalar OsgEarthNet.uav[50] utilizationCountIdleState 2
scalar OsgEarthNet.uav[50] utilizationFail 0
scalar OsgEarthNet.uav[50] simulationTime 259200
scalar OsgEarthNet.uav[51] utilizationSecMission 694.00169469977
scalar OsgEarthNet.uav[51] utilizationSecMaintenance 349.76607937241
scalar OsgEarthNet.uav[51] utilizationSecCharge 3830
scalar OsgEarthNet.uav[51] utilizationSecIdle 254326.23122593
scalar OsgEarthNet.uav[51] utilizationEnergyMission 3346.7684783935
scalar OsgEarthNet.uav[51] utilizationEnergyMaintenance 1552.974193573
scalar OsgEarthNet.uav[51] utilizationEnergyCharge 4899.7421875
scalar OsgEarthNet.uav[51] utilizationEnergyOverdrawMission 0
scalar OsgEarthNet.uav[51] utilizationEnergyOverdrawMaintenance 0
scalar OsgEarthNet.uav[51] utilizationCountMissions 1
scalar OsgEarthNet.uav[51] utilizationCountManeuversMission 13
scalar OsgEarthNet.uav[51] utilizationCountManeuversMaintenance 2
scalar OsgEarthNet.uav[51] utilizationCountChargeState 1
scalar OsgEarthNet.uav[51] utilizationCountOverdrawnAfterMission 0
scalar OsgEarthNet.uav[51] utilizationCountIdleState 2
scalar OsgEarthNet.uav[51] utilizationFail 0
scalar OsgEarthNet.uav[51] simulationTime 259200
scalar OsgEarthNet.uav[52] utilizationSecMission 750.20472747826
scalar OsgEarthNet.uav[52] utilizationSecMaintenance 255.5651663541
scalar OsgEarthNet.uav[52] utilizationSecCharge 3460
scalar OsgEarthNet.uav[52] utilizationSecIdle 254734.22910617
scalar OsgEarthNet.uav[52] utilizationEnergyMission 3277.4628143311
scalar OsgEarthNet.uav[52] utilizationEnergyMaintenance 963.43558883667
scalar OsgEarthNet.uav[52] utilizationEnergyCharge 4240.9008789062
scalar OsgEarthNet.uav[52] utilizationEnergyOverdrawMission 0
scalar OsgEarthNet.uav[52] utilizationEnergyOverdrawMaintenance 0
scalar OsgEarthNet.uav[52] utilizationCountMissions 1
scalar OsgEarthNet.uav[52] utilizationCountManeuversMission 11
scalar OsgEarthNet.uav[52] utilizationCountManeuversMaintenance 2
scalar OsgEarthNet.uav[52] utilizationCountChargeState 1
scalar OsgEarthNet.uav[52] utilizationCountOverdrawnAfterMission 0
scalar OsgEarthNet.uav[52] utilizationCountIdleState 2
scalar OsgEarthNet.uav[52] utilizationFail 0
scalar OsgEarthNet.uav[52] simulationTime 259200
scalar OsgEarthNet.uav[53] utilizationSecMission 28286.803836115
scalar OsgEarthNet.uav[53] utilizationSecMaintenance 16964.773318445
scalar OsgEarthNet.uav[53] utilizationSecCharge 164525.02972791
scalar OsgEarthNet.uav[53] utilizationSecIdle 49423.392117534
scalar OsgEarthNet.uav[53] utilizationEnergyMission 132629.76856995
scalar OsgEarthNet.uav[53] utilizationEnergyMaintenance 79360.12355423
scalar OsgEarthNet.uav[53] utilizationEnergyCharge 206561.71682739
scalar OsgEarthNet.uav[53] utilizationEnergyOverdrawMission 0
scalar OsgEarthNet.uav[53] utilizationEnergyOverdrawMaintenance 0
scalar OsgEarthNet.uav[53] utilizationCountMissions 46
scalar OsgEarthNet.uav[53] utilizationCountManeuversMission 469
scalar OsgEarthNet.uav[53] utilizationCountManeuversMaintenance 92
scalar OsgEarthNet.uav[53] utilizationCountChargeState 46
scalar OsgEarthNet.uav[53] utilizationCountOverdrawnAfterMission 0
scalar OsgEarthNet.uav[53] utilizationCountIdleState 46
scalar OsgEarthNet.uav[53] utilizationFail 0
scalar OsgEarthNet.uav[53] simulationTime 259200
scalar OsgEarthNet.uav[54] utilizationSecMission 655.55330183502
scalar OsgEarthNet.uav[54] utilizationSecMaintenance 334.5505930207
scalar OsgEarthNet.uav[54] utilizationSecCharge 3800
scalar OsgEarthNet.uav[54] utilizationSecIdle 254409.89510514
scalar OsgEarthNet.uav[54] utilizationEnergyMission 3048.3239135742
scalar OsgEarthNet.uav[54] utilizationEnergyMaintenance 1794.1601066589
scalar OsgEarthNet.uav[54] utilizationEnergyCharge 4842.4833984375
scalar OsgEarthNet.uav[54] utilizationEnergyOverdrawMission 0
scalar OsgEarthNet.uav[54] utilizationEnergyOverdrawMaintenance 0
scalar OsgEarthNet.uav[54] utilizationCountMissions 1
scalar OsgEarthNet.uav[54] utilizationCountManeuversMission 10
scalar OsgEarthNet.uav[54] utilizationCountManeuversMaintenance 2
scalar OsgEarthNet.uav[54] utilizationCountChargeState 1
scalar OsgEarthNet.uav[54] utilizationCountOverdrawnAfterMission 0
scalar OsgEarthNet.uav[54] utilizationCountIdleState 2
scalar OsgEarthNet.uav[54] utilizationFail 0
scalar OsgEarthNet.uav[54] simulationTime 259200
scalar OsgEarthNet.uav[55] utilizationSecMission 27479.366569727
scalar OsgEarthNet.uav[55] utilizationSecMaintenance 20361.412816358
scalar OsgEarthNet.uav[55] utilizationSecCharge 175930
scalar OsgEarthNet.uav[55] utilizationSecIdle 35429.219613916
scalar OsgEarthNet.uav[55] utilizationEnergyMission 128509.25998253
scalar OsgEarthNet.uav[55] utilizationEnergyMaintenance 93923.501659393
scalar OsgEarthNet.uav[55] utilizationEnergyCharge 220987.49291992
scalar OsgEarthNet.uav[55] utilizationEnergyOverdrawMission 0
scalar OsgEarthNet.uav[55] utilizationEnergyOverdrawMaintenance 0
scalar OsgEarthNet.uav[55] utilizationCountMissions 48
scalar OsgEarthNet.uav[55] utilizationCountManeuversMission 452
scalar OsgEarthNet.uav[55] utilizationCountManeuversMaintenance 97
scalar OsgEarthNet.uav[55] utilizationCountChargeState 48
scalar OsgEarthNet.uav[55] utilizationCountOverdrawnAfterMission 0
scalar OsgEarthNet.uav[55] utilizationCountIdleState 49
scalar OsgEarthNet.uav[55] utilizationFail 0
scalar OsgEarthNet.uav[55] simulationTime 259200
scalar OsgEarthNet.uav[56] utilizationSecMission 23929.693500965
scalar OsgEarthNet.uav[56] utilizationSecMaintenance 16012.023346828
scalar OsgEarthNet.uav[56] utilizationSecCharge 146622.38542589
scalar OsgEarthNet.uav[56] utilizationSecIdle 72635.896726312
scalar OsgEarthNet.uav[56] utilizationEnergyMission 111131.29257202
scalar OsgEarthNet.uav[56] utilizationEnergyMaintenance 74195.695335388
scalar OsgEarthNet.uav[56] utilizationEnergyCharge 184148.21875
scalar OsgEarthNet.uav[56] utilizationEnergyOverdrawMission 0
scalar OsgEarthNet.uav[56] utilizationEnergyOverdrawMaintenance 0
scalar OsgEarthNet.uav[56] utilizationCountMissions 41
scalar OsgEarthNet.uav[56] utilizationCountManeuversMission 393
scalar OsgEarthNet.uav[56] utilizationCountManeuversMaintenance 82
scalar OsgEarthNet.uav[56] utilizationCountChargeState 41
scalar OsgEarthNet.uav[56] utilizationCountOverdrawnAfterMission 0
scalar OsgEarthNet.uav[56] utilizationCountIdleState 41
scalar OsgEarthNet.uav[56] utilizationFail 0
scalar OsgEarthNet.uav[56] simulationTime 259200
scalar OsgEarthNet.uav[57] utilizationSecMission 29857.284971158
scalar OsgEarthNet.uav[57] utilizationSecMaintenance 17810.714028842
scalar OsgEarthNet.uav[57] utilizationSecCharge 175230
scalar OsgEarthNet.uav[57] utilizationSecIdle 36302
scalar OsgEarthNet.uav[57] utilizationEnergyMission 137378.91633224
scalar OsgEarthNet.uav[57] utilizationEnergyMaintenance 81915.771408432
scalar OsgEarthNet.uav[57] utilizationEnergyCharge 219746.8503418
scalar OsgEarthNet.uav[57] utilizationEnergyOverdrawMission 0
scalar OsgEarthNet.uav[57] utilizationEnergyOverdrawMaintenance 0
scalar OsgEarthNet.uav[57] utilizationCountMissions 48
scalar OsgEarthNet.uav[57] utilizationCountManeuversMission 481
scalar OsgEarthNet.uav[57] utilizationCountManeuversMaintenance 96
scalar OsgEarthNet.uav[57] utilizationCountChargeState 48
scalar OsgEarthNet.uav[57] utilizationCountOverdrawnAfterMission 0
scalar OsgEarthNet.uav[57] utilizationCountIdleState 49
scalar OsgEarthNet.uav[57] utilizationFail 0
scalar OsgEarthNet.uav[57] simulationTime 259200
scalar OsgEarthNet.uav[58] utilizationSecMission 887.1741082606
scalar OsgEarthNet.uav[58] utilizationSecMaintenance 148.2728194454
scalar OsgEarthNet.uav[58] utilizationSecCharge 3840
scalar OsgEarthNet.uav[58] utilizationSecIdle 254324.55207229
scalar OsgEarthNet.uav[58] utilizationEnergyMission 3696.4442138672
scalar OsgEarthNet.uav[58] utilizationEnergyMaintenance 854.94658660888
scalar OsgEarthNet.uav[58] utilizationEnergyCharge 4880.6372070312
scalar OsgEarthNet.uav[58] utilizationEnergyOverdrawMission 0
scalar OsgEarthNet.uav[58] utilizationEnergyOverdrawMaintenance 0
scalar OsgEarthNet.uav[58] utilizationCountMissions 1
scalar OsgEarthNet.uav[58] utilizationCountManeuversMission 14
scalar OsgEarthNet.uav[58] utilizationCountManeuversMaintenance 2
scalar OsgEarthNet.uav[58] utilizationCountChargeState 1
scalar OsgEarthNet.uav[58] utilizationCountOverdrawnAfterMission 0
scalar OsgEarthNet.uav[58] utilizationCountIdleState 2
scalar OsgEarthNet.uav[58] utilizationFail 0
scalar OsgEarthNet.uav[58] simulationTime 259200
scalar OsgEarthNet.uav[59] utilizationSecMission 28701.699087935
scalar OsgEarthNet.uav[59] utilizationSecMaintenance 18890.002784006
scalar OsgEarthNet.uav[59] utilizationSecCharge 172916.78346711
scalar OsgEarthNet.uav[59] utilizationSecIdle 38691.51366095
scalar OsgEarthNet.uav[59] utilizationEnergyMission 132372.10016632
scalar OsgEarthNet.uav[59] utilizationEnergyMaintenance 88675.434207916
scalar OsgEarthNet.uav[59] utilizationEnergyCharge 217475.09033203
scalar OsgEarthNet.uav[59] utilizationEnergyOverdrawMission 0
scalar OsgEarthNet.uav[59] utilizationEnergyOverdrawMaintenance 0
scalar OsgEarthNet.uav[59] utilizationCountMissions 48
scalar OsgEarthNet.uav[59] utilizationCountManeuversMission 467
scalar OsgEarthNet.uav[59] utilizationCountManeuversMaintenance 96
scalar OsgEarthNet.uav[59] utilizationCountChargeState 48
scalar OsgEarthNet.uav[59] utilizationCountOverdrawnAfterMission 0
scalar OsgEarthNet.uav[59] utilizationCountIdleState 48
scalar OsgEarthNet.uav[59] utilizationFail 0
scalar OsgEarthNet.uav[59] simulationTime 259200
scalar OsgEarthNet.uav[60] utilizationSecMission 5041.8635871006
scalar OsgEarthNet.uav[60] utilizationSecMaintenance 4053.4624696058
scalar OsgEarthNet.uav[60] utilizationSecCharge 32810
scalar OsgEarthNet.uav[60] utilizationSecIdle 217294.67294329
scalar OsgEarthNet.uav[60] utilizationEnergyMission 23242.706558228
scalar OsgEarthNet.uav[60] utilizationEnergyMaintenance 18218.519767761
scalar OsgEarthNet.uav[60] utilizationEnergyCharge 41107.901367188
scalar OsgEarthNet.uav[60] utilizationEnergyOverdrawMission 0
scalar OsgEarthNet.uav[60] utilizationEnergyOverdrawMaintenance 0
scalar OsgEarthNet.uav[60] utilizationCountMissions 9
scalar OsgEarthNet.uav[60] utilizationCountManeuversMission 82
scalar OsgEarthNet.uav[60] utilizationCountManeuversMaintenance 18
scalar OsgEarthNet.uav[60] utilizationCountChargeState 9
scalar OsgEarthNet.uav[60] utilizationCountOverdrawnAfterMission 0
scalar OsgEarthNet.uav[60] utilizationCountIdleState 10
scalar OsgEarthNet.uav[60] utilizationFail 0
scalar OsgEarthNet.uav[60] simulationTime 259200
scalar OsgEarthNet.uav[61] utilizationSecMission 28666.014903938
scalar OsgEarthNet.uav[61] utilizationSecMaintenance 19446.347942613
scalar OsgEarthNet.uav[61] utilizationSecCharge 173663.02426393
scalar OsgEarthNet.uav[61] utilizationSecIdle 37424.611889516
scalar OsgEarthNet.uav[61] utilizationEnergyMission 132785.89152527
scalar OsgEarthNet.uav[61] utilizationEnergyMaintenance 90020.005466461
scalar OsgEarthNet.uav[61] utilizationEnergyCharge 218840.62188721
scalar OsgEarthNet.uav[61] utilizationEnergyOverdrawMission 0
scalar OsgEarthNet.uav[61] utilizationEnergyOverdrawMaintenance 0
scalar OsgEarthNet.uav[61] utilizationCountMissions 48
scalar OsgEarthNet.uav[61] utilizationCountManeuversMission 463
scalar OsgEarthNet.uav[61] utilizationCountManeuversMaintenance 96
scalar OsgEarthNet.uav[61] utilizationCountChargeState 48
scalar OsgEarthNet.uav[61] utilizationCountOverdrawnAfterMission 0
scalar OsgEarthNet.uav[61] utilizationCountIdleState 48
scalar OsgEarthNet.uav[61] utilizationFail 0
scalar OsgEarthNet.uav[61] simulationTime 259200
scalar OsgEarthNet.uav[62] utilizationSecMission 766.82734763767
scalar OsgEarthNet.uav[62] utilizationSecMaintenance 306.92101052153
scalar OsgEarthNet.uav[62] utilizationSecCharge 3830
scalar OsgEarthNet.uav[62] utilizationSecIdle 254296.25064184
scalar OsgEarthNet.uav[62] utilizationEnergyMission 3529.2997436523
scalar OsgEarthNet.uav[62] utilizationEnergyMaintenance 1326.8773422241
scalar OsgEarthNet.uav[62] utilizationEnergyCharge 4853.9594726562
scalar OsgEarthNet.uav[62] utilizationEnergyOverdrawMission 0
scalar OsgEarthNet.uav[62] utilizationEnergyOverdrawMaintenance 0
scalar OsgEarthNet.uav[62] utilizationCountMissions 1
scalar OsgEarthNet.uav[62] utilizationCountManeuversMission 14
scalar OsgEarthNet.uav[62] utilizationCountManeuversMaintenance 2
scalar OsgEarthNet.uav[62] utilizationCountChargeState 1
scalar OsgEarthNet.uav[62] utilizationCountOverdrawnAfterMission 0
scalar OsgEarthNet.uav[62] utilizationCountIdleState 2
scalar OsgEarthNet.uav[62] utilizationFail 0
scalar OsgEarthNet.uav[62] simulationTime 259200
scalar OsgEarthNet.uav[63] utilizationSecMission 1392.3667439188
scalar OsgEarthNet.uav[63] utilizationSecMaintenance 644.95231821419
scalar OsgEarthNet.uav[63] utilizationSecCharge 7190
scalar OsgEarthNet.uav[63] utilizationSecIdle 249972.67993787
scalar OsgEarthNet.uav[63] utilizationEnergyMission 6198.9077224731
scalar OsgEarthNet.uav[63] utilizationEnergyMaintenance 2822.2556495667
scalar OsgEarthNet.uav[63] utilizationEnergyCharge 8971.8969726562
scalar OsgEarthNet.uav[63] utilizationEnergyOverdrawMission 0
scalar OsgEarthNet.uav[63] utilizationEnergyOverdrawMaintenance 0
scalar OsgEarthNet.uav[63] utilizationCountMissions 2
scalar OsgEarthNet.uav[63] utilizationCountManeuversMission 24
scalar OsgEarthNet.uav[63] utilizationCountManeuversMaintenance 4
scalar OsgEarthNet.uav[63] utilizationCountChargeState 2
scalar OsgEarthNet.uav[63] utilizationCountOverdrawnAfterMission 0
scalar OsgEarthNet.uav[63] utilizationCountIdleState 3
scalar OsgEarthNet.uav[63] utilizationFail 0
scalar OsgEarthNet.uav[63] simulationTime 259200
scalar OsgEarthNet.uav[64] utilizationSecMission 1238.1984962538
scalar OsgEarthNet.uav[64] utilizationSecMaintenance 765.05027238699
scalar OsgEarthNet.uav[64] utilizationSecCharge 7440
scalar OsgEarthNet.uav[64] utilizationSecIdle 249756.75023136
scalar OsgEarthNet.uav[64] utilizationEnergyMission 5727.1462554932
scalar OsgEarthNet.uav[64] utilizationEnergyMaintenance 3615.8536605835
scalar OsgEarthNet.uav[64] utilizationEnergyCharge 9342.9975585938
scalar OsgEarthNet.uav[64] utilizationEnergyOverdrawMission 0
scalar OsgEarthNet.uav[64] utilizationEnergyOverdrawMaintenance 0
scalar OsgEarthNet.uav[64] utilizationCountMissions 2
scalar OsgEarthNet.uav[64] utilizationCountManeuversMission 20
scalar OsgEarthNet.uav[64] utilizationCountManeuversMaintenance 4
scalar OsgEarthNet.uav[64] utilizationCountChargeState 2
scalar OsgEarthNet.uav[64] utilizationCountOverdrawnAfterMission 0
scalar OsgEarthNet.uav[64] utilizationCountIdleState 3
scalar OsgEarthNet.uav[64] utilizationFail 0
scalar OsgEarthNet.uav[64] simulationTime 259200
scalar OsgEarthNet.uav[65] utilizationSecMission 750.20472747826
scalar OsgEarthNet.uav[65] utilizationSecMaintenance 255.5651663541
scalar OsgEarthNet.uav[65] utilizationSecCharge 3670
scalar OsgEarthNet.uav[65] utilizationSecIdle 254524.22910617
[...]
scalar OsgEarthNet.uav[71] utilizationCountMissions 4
scalar OsgEarthNet.uav[71] utilizationCountManeuversMission 34
scalar OsgEarthNet.uav[71] utilizationCountManeuversMaintenance 8
scalar OsgEarthNet.uav[71] utilizationCountChargeState 4
scalar OsgEarthNet.uav[71] utilizationCountOverdrawnAfterMission 0
scalar OsgEarthNet.uav[71] utilizationCountIdleState 5
scalar OsgEarthNet.uav[71] utilizationFail 0
scalar OsgEarthNet.uav[71] simulationTime 259200
scalar OsgEarthNet.uav[72] utilizationSecMission 5081.8011404545
scalar OsgEarthNet.uav[72] utilizationSecMaintenance 3832.2402388503
scalar OsgEarthNet.uav[72] utilizationSecCharge 32740
scalar OsgEarthNet.uav[72] utilizationSecIdle 217545.9576207
scalar OsgEarthNet.uav[72] utilizationEnergyMission 23409.241874695
scalar OsgEarthNet.uav[72] utilizationEnergyMaintenance 17403.794322968
scalar OsgEarthNet.uav[72] utilizationEnergyCharge 40909.860351562
scalar OsgEarthNet.uav[72] utilizationEnergyOverdrawMission 0
scalar OsgEarthNet.uav[72] utilizationEnergyOverdrawMaintenance 0
scalar OsgEarthNet.uav[72] utilizationCountMissions 9
scalar OsgEarthNet.uav[72] utilizationCountManeuversMission 87
scalar OsgEarthNet.uav[72] utilizationCountManeuversMaintenance 18
scalar OsgEarthNet.uav[72] utilizationCountChargeState 9
scalar OsgEarthNet.uav[72] utilizationCountOverdrawnAfterMission 0
scalar OsgEarthNet.uav[72] utilizationCountIdleState 10
scalar OsgEarthNet.uav[72] utilizationFail 0
scalar OsgEarthNet.uav[72] simulationTime 259200
scalar OsgEarthNet.uav[73] utilizationSecMission 13074.719443716
scalar OsgEarthNet.uav[73] utilizationSecMaintenance 7030.4517044505
scalar OsgEarthNet.uav[73] utilizationSecCharge 73290
scalar OsgEarthNet.uav[73] utilizationSecIdle 165804.82785183
scalar OsgEarthNet.uav[73] utilizationEnergyMission 59963.149017334
scalar OsgEarthNet.uav[73] utilizationEnergyMaintenance 32138.330471039
scalar OsgEarthNet.uav[73] utilizationEnergyCharge 91899.947509766
scalar OsgEarthNet.uav[73] utilizationEnergyOverdrawMission 0
scalar OsgEarthNet.uav[73] utilizationEnergyOverdrawMaintenance 0
scalar OsgEarthNet.uav[73] utilizationCountMissions 20
scalar OsgEarthNet.uav[73] utilizationCountManeuversMission 215
scalar OsgEarthNet.uav[73] utilizationCountManeuversMaintenance 40
scalar OsgEarthNet.uav[73] utilizationCountChargeState 20
scalar OsgEarthNet.uav[73] utilizationCountOverdrawnAfterMission 0
scalar OsgEarthNet.uav[73] utilizationCountIdleState 21
scalar OsgEarthNet.uav[73] utilizationFail 0
scalar OsgEarthNet.uav[73] simulationTime 259200
scalar OsgEarthNet.uav[74] utilizationSecMission 23404.103627166
scalar OsgEarthNet.uav[74] utilizationSecMaintenance 14769.327850457
scalar OsgEarthNet.uav[74] utilizationSecCharge 141220.00163357
scalar OsgEarthNet.uav[74] utilizationSecIdle 79806.565888807
scalar OsgEarthNet.uav[74] utilizationEnergyMission 108406.9129715
scalar OsgEarthNet.uav[74] utilizationEnergyMaintenance 69182.99123764
scalar OsgEarthNet.uav[74] utilizationEnergyCharge 177467.68334961
scalar OsgEarthNet.uav[74] utilizationEnergyOverdrawMission 0
scalar OsgEarthNet.uav[74] utilizationEnergyOverdrawMaintenance 0
scalar OsgEarthNet.uav[74] utilizationCountMissions 39
scalar OsgEarthNet.uav[74] utilizationCountManeuversMission 368
scalar OsgEarthNet.uav[74] utilizationCountManeuversMaintenance 78
scalar OsgEarthNet.uav[74] utilizationCountChargeState 39
scalar OsgEarthNet.uav[74] utilizationCountOverdrawnAfterMission 0
scalar OsgEarthNet.uav[74] utilizationCountIdleState 38
scalar OsgEarthNet.uav[74] utilizationFail 0
scalar OsgEarthNet.uav[74] simulationTime 259200
scalar OsgEarthNet.uav[75] utilizationSecMission 28666.491686186
scalar OsgEarthNet.uav[75] utilizationSecMaintenance 18854.332203403
scalar OsgEarthNet.uav[75] utilizationSecCharge 172760
scalar OsgEarthNet.uav[75] utilizationSecIdle 38919.175110411
scalar OsgEarthNet.uav[75] utilizationEnergyMission 132113.49113402
scalar OsgEarthNet.uav[75] utilizationEnergyMaintenance 86895.05197525
scalar OsgEarthNet.uav[75] utilizationEnergyCharge 217211.09790039
scalar OsgEarthNet.uav[75] utilizationEnergyOverdrawMission 0
scalar OsgEarthNet.uav[75] utilizationEnergyOverdrawMaintenance 0
scalar OsgEarthNet.uav[75] utilizationCountMissions 47
scalar OsgEarthNet.uav[75] utilizationCountManeuversMission 469
scalar OsgEarthNet.uav[75] utilizationCountManeuversMaintenance 95
scalar OsgEarthNet.uav[75] utilizationCountChargeState 47
scalar OsgEarthNet.uav[75] utilizationCountOverdrawnAfterMission 0
scalar OsgEarthNet.uav[75] utilizationCountIdleState 48
scalar OsgEarthNet.uav[75] utilizationFail 0
scalar OsgEarthNet.uav[75] simulationTime 259200
scalar OsgEarthNet.uav[76] utilizationSecMission 17170.01784752
scalar OsgEarthNet.uav[76] utilizationSecMaintenance 12841.930752443
scalar OsgEarthNet.uav[76] utilizationSecCharge 110180
scalar OsgEarthNet.uav[76] utilizationSecIdle 119008.05040004
scalar OsgEarthNet.uav[76] utilizationEnergyMission 79121.527061462
scalar OsgEarthNet.uav[76] utilizationEnergyMaintenance 59276.214801788
scalar OsgEarthNet.uav[76] utilizationEnergyCharge 138634.734375
scalar OsgEarthNet.uav[76] utilizationEnergyOverdrawMission 0
scalar OsgEarthNet.uav[76] utilizationEnergyOverdrawMaintenance 0
scalar OsgEarthNet.uav[76] utilizationCountMissions 30
scalar OsgEarthNet.uav[76] utilizationCountManeuversMission 285
scalar OsgEarthNet.uav[76] utilizationCountManeuversMaintenance 60
scalar OsgEarthNet.uav[76] utilizationCountChargeState 30
scalar OsgEarthNet.uav[76] utilizationCountOverdrawnAfterMission 0
scalar OsgEarthNet.uav[76] utilizationCountIdleState 30
scalar OsgEarthNet.uav[76] utilizationFail 0
scalar OsgEarthNet.uav[76] simulationTime 259200
scalar OsgEarthNet.uav[77] utilizationSecMission 20516.061012328
scalar OsgEarthNet.uav[77] utilizationSecMaintenance 14923.907380921
scalar OsgEarthNet.uav[77] utilizationSecCharge 127971.67627308
scalar OsgEarthNet.uav[77] utilizationSecIdle 95788.354333668
scalar OsgEarthNet.uav[77] utilizationEnergyMission 93634.023345947
scalar OsgEarthNet.uav[77] utilizationEnergyMaintenance 68618.465847015
scalar OsgEarthNet.uav[77] utilizationEnergyCharge 160422.82006836
scalar OsgEarthNet.uav[77] utilizationEnergyOverdrawMission 0
scalar OsgEarthNet.uav[77] utilizationEnergyOverdrawMaintenance 0
scalar OsgEarthNet.uav[77] utilizationCountMissions 36
scalar OsgEarthNet.uav[77] utilizationCountManeuversMission 327
scalar OsgEarthNet.uav[77] utilizationCountManeuversMaintenance 72
scalar OsgEarthNet.uav[77] utilizationCountChargeState 36
scalar OsgEarthNet.uav[77] utilizationCountOverdrawnAfterMission 0
scalar OsgEarthNet.uav[77] utilizationCountIdleState 36
scalar OsgEarthNet.uav[77] utilizationFail 0
scalar OsgEarthNet.uav[77] simulationTime 259200
scalar OsgEarthNet.uav[78] utilizationSecMission 23709.372886985
scalar OsgEarthNet.uav[78] utilizationSecMaintenance 16096.62936368
scalar OsgEarthNet.uav[78] utilizationSecCharge 145830
scalar OsgEarthNet.uav[78] utilizationSecIdle 73563.996749335
scalar OsgEarthNet.uav[78] utilizationEnergyMission 108848.65130615
scalar OsgEarthNet.uav[78] utilizationEnergyMaintenance 74248.065761566
scalar OsgEarthNet.uav[78] utilizationEnergyCharge 182892.60327148
scalar OsgEarthNet.uav[78] utilizationEnergyOverdrawMission 0
scalar OsgEarthNet.uav[78] utilizationEnergyOverdrawMaintenance 0
scalar OsgEarthNet.uav[78] utilizationCountMissions 40
scalar OsgEarthNet.uav[78] utilizationCountManeuversMission 390
scalar OsgEarthNet.uav[78] utilizationCountManeuversMaintenance 80
scalar OsgEarthNet.uav[78] utilizationCountChargeState 40
scalar OsgEarthNet.uav[78] utilizationCountOverdrawnAfterMission 0
scalar OsgEarthNet.uav[78] utilizationCountIdleState 38
scalar OsgEarthNet.uav[78] utilizationFail 0
scalar OsgEarthNet.uav[78] simulationTime 259200
scalar OsgEarthNet.uav[79] utilizationSecMission 24212.199193198
scalar OsgEarthNet.uav[79] utilizationSecMaintenance 19965.940313235
scalar OsgEarthNet.uav[79] utilizationSecCharge 159298.28478192
scalar OsgEarthNet.uav[79] utilizationSecIdle 55723.574711649
scalar OsgEarthNet.uav[79] utilizationEnergyMission 113043.87120056
scalar OsgEarthNet.uav[79] utilizationEnergyMaintenance 91623.544864655
scalar OsgEarthNet.uav[79] utilizationEnergyCharge 199836.28393555
scalar OsgEarthNet.uav[79] utilizationEnergyOverdrawMission 0
scalar OsgEarthNet.uav[79] utilizationEnergyOverdrawMaintenance 0
scalar OsgEarthNet.uav[79] utilizationCountMissions 45
scalar OsgEarthNet.uav[79] utilizationCountManeuversMission 387
scalar OsgEarthNet.uav[79] utilizationCountManeuversMaintenance 90
scalar OsgEarthNet.uav[79] utilizationCountChargeState 45
scalar OsgEarthNet.uav[79] utilizationCountOverdrawnAfterMission 0
scalar OsgEarthNet.uav[79] utilizationCountIdleState 43
scalar OsgEarthNet.uav[79] utilizationFail 0
scalar OsgEarthNet.uav[79] simulationTime 259200
scalar OsgEarthNet.uav[80] utilizationSecMission 24215.960384635
scalar OsgEarthNet.uav[80] utilizationSecMaintenance 22641.895043571
scalar OsgEarthNet.uav[80] utilizationSecCharge 172725.62069329
scalar OsgEarthNet.uav[80] utilizationSecIdle 39616.522878507
scalar OsgEarthNet.uav[80] utilizationEnergyMission 112815.66584778
scalar OsgEarthNet.uav[80] utilizationEnergyMaintenance 105876.31284332
scalar OsgEarthNet.uav[80] utilizationEnergyCharge 217458.63085938
scalar OsgEarthNet.uav[80] utilizationEnergyOverdrawMission 0
scalar OsgEarthNet.uav[80] utilizationEnergyOverdrawMaintenance 0
scalar OsgEarthNet.uav[80] utilizationCountMissions 48
scalar OsgEarthNet.uav[80] utilizationCountManeuversMission 390
scalar OsgEarthNet.uav[80] utilizationCountManeuversMaintenance 96
scalar OsgEarthNet.uav[80] utilizationCountChargeState 48
scalar OsgEarthNet.uav[80] utilizationCountOverdrawnAfterMission 0
scalar OsgEarthNet.uav[80] utilizationCountIdleState 47
scalar OsgEarthNet.uav[80] utilizationFail 0
scalar OsgEarthNet.uav[80] simulationTime 259200
scalar OsgEarthNet.uav[81] utilizationSecMission 26568.437418679
scalar OsgEarthNet.uav[81] utilizationSecMaintenance 18777.569242228
scalar OsgEarthNet.uav[81] utilizationSecCharge 163527.632602
scalar OsgEarthNet.uav[81] utilizationSecIdle 50326.359737088
scalar OsgEarthNet.uav[81] utilizationEnergyMission 123187.74848557
scalar OsgEarthNet.uav[81] utilizationEnergyMaintenance 86698.160453796
scalar OsgEarthNet.uav[81] utilizationEnergyCharge 205216.85821533
scalar OsgEarthNet.uav[81] utilizationEnergyOverdrawMission 0
scalar OsgEarthNet.uav[81] utilizationEnergyOverdrawMaintenance 0
scalar OsgEarthNet.uav[81] utilizationCountMissions 46
scalar OsgEarthNet.uav[81] utilizationCountManeuversMission 424
scalar OsgEarthNet.uav[81] utilizationCountManeuversMaintenance 92
scalar OsgEarthNet.uav[81] utilizationCountChargeState 46
scalar OsgEarthNet.uav[81] utilizationCountOverdrawnAfterMission 0
scalar OsgEarthNet.uav[81] utilizationCountIdleState 43
scalar OsgEarthNet.uav[81] utilizationFail 0
scalar OsgEarthNet.uav[81] simulationTime 259200
scalar OsgEarthNet.uav[82] utilizationSecMission 26252.315831384
scalar OsgEarthNet.uav[82] utilizationSecMaintenance 21257.269499808
scalar OsgEarthNet.uav[82] utilizationSecCharge 172383.13968239
scalar OsgEarthNet.uav[82] utilizationSecIdle 39307.273986421
scalar OsgEarthNet.uav[82] utilizationEnergyMission 120645.23822021
scalar OsgEarthNet.uav[82] utilizationEnergyMaintenance 98046.82233429
scalar OsgEarthNet.uav[82] utilizationEnergyCharge 218073.43334961
scalar OsgEarthNet.uav[82] utilizationEnergyOverdrawMission 0
scalar OsgEarthNet.uav[82] utilizationEnergyOverdrawMaintenance 0
scalar OsgEarthNet.uav[82] utilizationCountMissions 48
scalar OsgEarthNet.uav[82] utilizationCountManeuversMission 420
scalar OsgEarthNet.uav[82] utilizationCountManeuversMaintenance 96
scalar OsgEarthNet.uav[82] utilizationCountChargeState 48
scalar OsgEarthNet.uav[82] utilizationCountOverdrawnAfterMission 0
scalar OsgEarthNet.uav[82] utilizationCountIdleState 40
scalar OsgEarthNet.uav[82] utilizationFail 0
scalar OsgEarthNet.uav[82] simulationTime 259200
scalar OsgEarthNet.uav[83] utilizationSecMission 26573.116212418
scalar OsgEarthNet.uav[83] utilizationSecMaintenance 20769.03041326
scalar OsgEarthNet.uav[83] utilizationSecCharge 172348.19873484
scalar OsgEarthNet.uav[83] utilizationSecIdle 39509.65363948
scalar OsgEarthNet.uav[83] utilizationEnergyMission 122414.38316727
scalar OsgEarthNet.uav[83] utilizationEnergyMaintenance 96733.633678436
scalar OsgEarthNet.uav[83] utilizationEnergyCharge 217788.34301758
scalar OsgEarthNet.uav[83] utilizationEnergyOverdrawMission 0
scalar OsgEarthNet.uav[83] utilizationEnergyOverdrawMaintenance 0
scalar OsgEarthNet.uav[83] utilizationCountMissions 48
scalar OsgEarthNet.uav[83] utilizationCountManeuversMission 434
scalar OsgEarthNet.uav[83] utilizationCountManeuversMaintenance 96
scalar OsgEarthNet.uav[83] utilizationCountChargeState 48
scalar OsgEarthNet.uav[83] utilizationCountOverdrawnAfterMission 0
scalar OsgEarthNet.uav[83] utilizationCountIdleState 40
scalar OsgEarthNet.uav[83] utilizationFail 0
scalar OsgEarthNet.uav[83] simulationTime 259200
scalar OsgEarthNet.uav[84] utilizationSecMission 28908.729719934
scalar OsgEarthNet.uav[84] utilizationSecMaintenance 21065.609265189
scalar OsgEarthNet.uav[84] utilizationSecCharge 183988.97920699
scalar OsgEarthNet.uav[84] utilizationSecIdle 25236.680807888
scalar OsgEarthNet.uav[84] utilizationEnergyMission 134321.57444
scalar OsgEarthNet.uav[84] utilizationEnergyMaintenance 97853.070812225
scalar OsgEarthNet.uav[84] utilizationEnergyCharge 231538.88378906
scalar OsgEarthNet.uav[84] utilizationEnergyOverdrawMission 0
scalar OsgEarthNet.uav[84] utilizationEnergyOverdrawMaintenance 0
scalar OsgEarthNet.uav[84] utilizationCountMissions 51
scalar OsgEarthNet.uav[84] utilizationCountManeuversMission 466
scalar OsgEarthNet.uav[84] utilizationCountManeuversMaintenance 102
scalar OsgEarthNet.uav[84] utilizationCountChargeState 51
scalar OsgEarthNet.uav[84] utilizationCountOverdrawnAfterMission 0
scalar OsgEarthNet.uav[84] utilizationCountIdleState 44
scalar OsgEarthNet.uav[84] utilizationFail 0
scalar OsgEarthNet.uav[84] simulationTime 259200
scalar OsgEarthNet.uav[85] utilizationSecMission 27676.414529936
scalar OsgEarthNet.uav[85] utilizationSecMaintenance 22252.399762683
scalar OsgEarthNet.uav[85] utilizationSecCharge 181398.46856609
scalar OsgEarthNet.uav[85] utilizationSecIdle 27872.716141287
scalar OsgEarthNet.uav[85] utilizationEnergyMission 126862.26925659
scalar OsgEarthNet.uav[85] utilizationEnergyMaintenance 102729.26258087
scalar OsgEarthNet.uav[85] utilizationEnergyCharge 229756.29467773
scalar OsgEarthNet.uav[85] utilizationEnergyOverdrawMission 0
scalar OsgEarthNet.uav[85] utilizationEnergyOverdrawMaintenance 0
scalar OsgEarthNet.uav[85] utilizationCountMissions 50
scalar OsgEarthNet.uav[85] utilizationCountManeuversMission 451
scalar OsgEarthNet.uav[85] utilizationCountManeuversMaintenance 100
scalar OsgEarthNet.uav[85] utilizationCountChargeState 50
scalar OsgEarthNet.uav[85] utilizationCountOverdrawnAfterMission 0
scalar OsgEarthNet.uav[85] utilizationCountIdleState 38
scalar OsgEarthNet.uav[85] utilizationFail 0
scalar OsgEarthNet.uav[85] simulationTime 259200
scalar OsgEarthNet.uav[86] utilizationSecMission 29637.2195879
scalar OsgEarthNet.uav[86] utilizationSecMaintenance 20066.73205253
scalar OsgEarthNet.uav[86] utilizationSecCharge 181560
scalar OsgEarthNet.uav[86] utilizationSecIdle 27936.04735957
scalar OsgEarthNet.uav[86] utilizationEnergyMission 135767.09486389
scalar OsgEarthNet.uav[86] utilizationEnergyMaintenance 93041.986675262
scalar OsgEarthNet.uav[86] utilizationEnergyCharge 228252.81323242
scalar OsgEarthNet.uav[86] utilizationEnergyOverdrawMission 0
scalar OsgEarthNet.uav[86] utilizationEnergyOverdrawMaintenance 0
scalar OsgEarthNet.uav[86] utilizationCountMissions 51
scalar OsgEarthNet.uav[86] utilizationCountManeuversMission 480
scalar OsgEarthNet.uav[86] utilizationCountManeuversMaintenance 102
scalar OsgEarthNet.uav[86] utilizationCountChargeState 51
scalar OsgEarthNet.uav[86] utilizationCountOverdrawnAfterMission 0
scalar OsgEarthNet.uav[86] utilizationCountIdleState 36
scalar OsgEarthNet.uav[86] utilizationFail 0
scalar OsgEarthNet.uav[86] simulationTime 259200
scalar OsgEarthNet.uav[87] utilizationSecMission 29443.266081192
scalar OsgEarthNet.uav[87] utilizationSecMaintenance 21410.437844549
scalar OsgEarthNet.uav[87] utilizationSecCharge 181917.12963714
scalar OsgEarthNet.uav[87] utilizationSecIdle 26429.165437118
scalar OsgEarthNet.uav[87] utilizationEnergyMission 135167.04280853
scalar OsgEarthNet.uav[87] utilizationEnergyMaintenance 99160.1068573
scalar OsgEarthNet.uav[87] utilizationEnergyCharge 230367.63903809
scalar OsgEarthNet.uav[87] utilizationEnergyOverdrawMission 0
scalar OsgEarthNet.uav[87] utilizationEnergyOverdrawMaintenance 0
scalar OsgEarthNet.uav[87] utilizationCountMissions 51
scalar OsgEarthNet.uav[87] utilizationCountManeuversMission 486
scalar OsgEarthNet.uav[87] utilizationCountManeuversMaintenance 102
scalar OsgEarthNet.uav[87] utilizationCountChargeState 51
scalar OsgEarthNet.uav[87] utilizationCountOverdrawnAfterMission 0
scalar OsgEarthNet.uav[87] utilizationCountIdleState 41
scalar OsgEarthNet.uav[87] utilizationFail 0
scalar OsgEarthNet.uav[87] simulationTime 259200
scalar OsgEarthNet.uav[88] utilizationSecMission 28955.639472068
scalar OsgEarthNet.uav[88] utilizationSecMaintenance 24202.359527932
scalar OsgEarthNet.uav[88] utilizationSecCharge 192180
scalar OsgEarthNet.uav[88] utilizationSecIdle 13862
scalar OsgEarthNet.uav[88] utilizationEnergyMission 132791.50518546
scalar OsgEarthNet.uav[88] utilizationEnergyMaintenance 111312.34106064
scalar OsgEarthNet.uav[88] utilizationEnergyCharge 241814.48071289
scalar OsgEarthNet.uav[88] utilizationEnergyOverdrawMission 0
scalar OsgEarthNet.uav[88] utilizationEnergyOverdrawMaintenance 0
scalar OsgEarthNet.uav[88] utilizationCountMissions 54
scalar OsgEarthNet.uav[88] utilizationCountManeuversMission 482
scalar OsgEarthNet.uav[88] utilizationCountManeuversMaintenance 108
scalar OsgEarthNet.uav[88] utilizationCountChargeState 54
scalar OsgEarthNet.uav[88] utilizationCountOverdrawnAfterMission 0
scalar OsgEarthNet.uav[88] utilizationCountIdleState 39
scalar OsgEarthNet.uav[88] utilizationFail 0
scalar OsgEarthNet.uav[88] simulationTime 259200
scalar OsgEarthNet.uav[89] utilizationSecMission 30917.166658982
scalar OsgEarthNet.uav[89] utilizationSecMaintenance 20310.832341018
scalar OsgEarthNet.uav[89] utilizationSecCharge 185820
scalar OsgEarthNet.uav[89] utilizationSecIdle 22152
scalar OsgEarthNet.uav[89] utilizationEnergyMission 143868.14154053
scalar OsgEarthNet.uav[89] utilizationEnergyMaintenance 94674.166608387
scalar OsgEarthNet.uav[89] utilizationEnergyCharge 235164.64892578
scalar OsgEarthNet.uav[89] utilizationEnergyOverdrawMission 0
scalar OsgEarthNet.uav[89] utilizationEnergyOverdrawMaintenance 0
scalar OsgEarthNet.uav[89] utilizationCountMissions 52
scalar OsgEarthNet.uav[89] utilizationCountManeuversMission 497
scalar OsgEarthNet.uav[89] utilizationCountManeuversMaintenance 103
scalar OsgEarthNet.uav[89] utilizationCountChargeState 51
scalar OsgEarthNet.uav[89] utilizationCountOverdrawnAfterMission 0
scalar OsgEarthNet.uav[89] utilizationCountIdleState 38
scalar OsgEarthNet.uav[89] utilizationFail 0
scalar OsgEarthNet.uav[89] simulationTime 259200
scalar OsgEarthNet.cs[0] usedPower 2144932.4926774
scalar OsgEarthNet.cs[0] chargedPower 2144932.4926774
scalar OsgEarthNet.cs[0] chargedMobileNodes 438
scalar OsgEarthNet.cs[0] reservations 477
scalar OsgEarthNet.cs[1] usedPower 2879590.8029772
scalar OsgEarthNet.cs[1] chargedPower 2879590.8029772
scalar OsgEarthNet.cs[1] chargedMobileNodes 584
scalar OsgEarthNet.cs[1] reservations 628
scalar OsgEarthNet.cs[2] usedPower 4885194.7423972
scalar OsgEarthNet.cs[2] chargedPower 4885194.7423972
scalar OsgEarthNet.cs[2] chargedMobileNodes 1025
scalar OsgEarthNet.cs[2] reservations 1077

