version 2
run Szenario_Hotel_Gabelbach-85-20180710-03:58:21-13256
attr configname Szenario_Hotel_Gabelbach
attr datetime 20180710-03:58:21
attr experiment Szenario_Hotel_Gabelbach
attr inifile omnetpp.ini
attr iterationvars "$numUAVs=70, $replM=0"
attr iterationvarsf numUAVs=70,replM=0-
attr measurement "$numUAVs=70, $replM=0"
attr network OsgEarthNet
attr processid 13256
attr repetition 5
attr replication #5
attr resultdir results
attr runnumber 85
attr seedset 85
itervar numUAVs 70
itervar replM 0
param *.osgEarthScene.scene "\"Szenario_Hotel_Gabelbach.earth\""
param *.playgroundLatitude 50.6830269
param *.playgroundLongitude 10.8538055
param *.playgroundWidth 3500m
param *.playgroundHeight 3500m
param *.numCSs 3
param *.cs[0].posX 3537m
param *.cs[0].posY 965m
param *.cs[0].posZ 538m
param *.cs[1].posX 312m
param *.cs[1].posY 1262m
param *.cs[1].posZ 539m
param *.cs[2].posX 2185m
param *.cs[2].posY 3026m
param *.cs[2].posZ 777m
param *.cs[3].posX 10m
param *.cs[3].posY 2200m
param *.cs[3].posZ 560m
param *.cs[4].posX 750m
param *.cs[4].posY 200m
param *.cs[4].posZ 540m
param *.cs[5].posX 2450m
param *.cs[5].posY 180m
param *.cs[5].posZ 524m
param *.cs[6].posX 3140m
param *.cs[6].posY 1790m
param *.cs[6].posZ 606m
param *.numUAVs 70
param *.uav[*].replacementMethod 0
param *.*.timeStep 10s
param *.uav[*].commandPreviewCommandCount 20
param *.missionControl.missionFiles "\"missions\\\\Szenario_WB_Hotel_Gabelbach_Mission_Hotel.waypoints,missions\\\\Szenario_WB_Hotel_Gabelbach_Mission_Kickelhahn.waypoints,missions\\\\Szenario_WB_Hotel_Gabelbach_Mission_Ilmenau_Sportplatz.waypoints,missions\\\\Szenario_WB_Hotel_Gabelbach_Mission_Manebach_Mitte.waypoints,missions\\\\Szenario_WB_Hotel_Gabelbach_Mission_Manebach_Sued.waypoints\""
param *.missionControl.missionFiles "\"missions\\\\Szenario_WB_Hotel_Gabelbach_Mission_Hotel.waypoints,missions\\\\Szenario_WB_Hotel_Gabelbach_Mission_Kickelhahn.waypoints,missions\\\\Szenario_WB_Hotel_Gabelbach_Mission_Ilmenau_Sportplatz.waypoints,missions\\\\Szenario_WB_Hotel_Gabelbach_Mission_Manebach_Mitte.waypoints,missions\\\\Szenario_WB_Hotel_Gabelbach_Mission_Manebach_Sued.waypoints,missions\\\\Szenario_WB_Hotel_Gabelbach_Hover_HoheSchlaufe.waypoints,missions\\\\Szenario_WB_Hotel_Gabelbach_Hover_Kickelhahn.waypoints,missions\\\\Szenario_WB_Hotel_Gabelbach_Hover_Gabelbachskopf.waypoints,missions\\\\Szenario_WB_Hotel_Gabelbach_Hover_Dachskopf.waypoints\""
param *.uav[0].startX 3537m
param *.uav[0].startY 965m
param *.uav[0].startZ 539m
param *.uav[1].startX 312m
param *.uav[1].startY 1262m
param *.uav[1].startZ 540m
param *.uav[2].startX 2185m
param *.uav[2].startY 3026m
param *.uav[2].startZ 778m
param *.uav[3].startX 3537m
param *.uav[3].startY 965m
param *.uav[3].startZ 539m
param *.uav[4].startX 312m
param *.uav[4].startY 1262m
param *.uav[4].startZ 540m
param *.uav[5].startX 2185m
param *.uav[5].startY 3026m
param *.uav[5].startZ 778m
param *.uav[6].startX 3537m
param *.uav[6].startY 965m
param *.uav[6].startZ 539m
param *.uav[7].startX 312m
param *.uav[7].startY 1262m
param *.uav[7].startZ 540m
param *.uav[8].startX 2185m
param *.uav[8].startY 3026m
param *.uav[8].startZ 778m
param *.uav[9].startX 3537m
param *.uav[9].startY 965m
param *.uav[9].startZ 539m
param *.uav[10].startX 3537m
param *.uav[10].startY 965m
param *.uav[10].startZ 539m
param *.uav[11].startX 312m
param *.uav[11].startY 1262m
param *.uav[11].startZ 540m
param *.uav[12].startX 2185m
param *.uav[12].startY 3026m
param *.uav[12].startZ 778m
param *.uav[13].startX 3537m
param *.uav[13].startY 965m
param *.uav[13].startZ 539m
param *.uav[14].startX 312m
param *.uav[14].startY 1262m
param *.uav[14].startZ 540m
param *.uav[15].startX 2185m
param *.uav[15].startY 3026m
param *.uav[15].startZ 778m
param *.uav[16].startX 3537m
param *.uav[16].startY 965m
param *.uav[16].startZ 539m
param *.uav[17].startX 312m
param *.uav[17].startY 1262m
param *.uav[17].startZ 540m
param *.uav[18].startX 2185m
param *.uav[18].startY 3026m
param *.uav[18].startZ 778m
param *.uav[19].startX 3537m
param *.uav[19].startY 965m
param *.uav[19].startZ 539m
param *.uav[20].startX 3537m
param *.uav[20].startY 965m
param *.uav[20].startZ 539m
param *.uav[21].startX 312m
param *.uav[21].startY 1262m
param *.uav[21].startZ 540m
param *.uav[22].startX 2185m
param *.uav[22].startY 3026m
param *.uav[22].startZ 778m
param *.uav[23].startX 3537m
param *.uav[23].startY 965m
param *.uav[23].startZ 539m
param *.uav[24].startX 312m
param *.uav[24].startY 1262m
param *.uav[24].startZ 540m
param *.uav[25].startX 2185m
param *.uav[25].startY 3026m
param *.uav[25].startZ 778m
param *.uav[26].startX 3537m
param *.uav[26].startY 965m
param *.uav[26].startZ 539m
param *.uav[27].startX 312m
param *.uav[27].startY 1262m
param *.uav[27].startZ 540m
param *.uav[28].startX 2185m
param *.uav[28].startY 3026m
param *.uav[28].startZ 778m
param *.uav[29].startX 3537m
param *.uav[29].startY 965m
param *.uav[29].startZ 539m
param *.uav[30].startX 3537m
param *.uav[30].startY 965m
param *.uav[30].startZ 539m
param *.uav[31].startX 312m
param *.uav[31].startY 1262m
param *.uav[31].startZ 540m
param *.uav[32].startX 2185m
param *.uav[32].startY 3026m
param *.uav[32].startZ 778m
param *.uav[33].startX 3537m
param *.uav[33].startY 965m
param *.uav[33].startZ 539m
param *.uav[34].startX 312m
param *.uav[34].startY 1262m
param *.uav[34].startZ 540m
param *.uav[35].startX 2185m
param *.uav[35].startY 3026m
param *.uav[35].startZ 778m
param *.uav[36].startX 3537m
param *.uav[36].startY 965m
param *.uav[36].startZ 539m
param *.uav[37].startX 312m
param *.uav[37].startY 1262m
param *.uav[37].startZ 540m
param *.uav[38].startX 2185m
param *.uav[38].startY 3026m
param *.uav[38].startZ 778m
param *.uav[39].startX 3537m
param *.uav[39].startY 965m
param *.uav[39].startZ 539m
param *.uav[40].startX 3537m
param *.uav[40].startY 965m
param *.uav[40].startZ 539m
param *.uav[41].startX 312m
param *.uav[41].startY 1262m
param *.uav[41].startZ 540m
param *.uav[42].startX 2185m
param *.uav[42].startY 3026m
param *.uav[42].startZ 778m
param *.uav[43].startX 3537m
param *.uav[43].startY 965m
param *.uav[43].startZ 539m
param *.uav[44].startX 312m
param *.uav[44].startY 1262m
param *.uav[44].startZ 540m
param *.uav[45].startX 2185m
param *.uav[45].startY 3026m
param *.uav[45].startZ 778m
param *.uav[46].startX 3537m
param *.uav[46].startY 965m
param *.uav[46].startZ 539m
param *.uav[47].startX 312m
param *.uav[47].startY 1262m
param *.uav[47].startZ 540m
param *.uav[48].startX 2185m
param *.uav[48].startY 3026m
param *.uav[48].startZ 778m
param *.uav[49].startX 3537m
param *.uav[49].startY 965m
param *.uav[49].startZ 539m
param *.uav[50].startX 3537m
param *.uav[50].startY 965m
param *.uav[50].startZ 539m
param *.uav[51].startX 312m
param *.uav[51].startY 1262m
param *.uav[51].startZ 540m
param *.uav[52].startX 2185m
param *.uav[52].startY 3026m
param *.uav[52].startZ 778m
param *.uav[53].startX 3537m
param *.uav[53].startY 965m
param *.uav[53].startZ 539m
param *.uav[54].startX 312m
param *.uav[54].startY 1262m
param *.uav[54].startZ 540m
param *.uav[55].startX 2185m
param *.uav[55].startY 3026m
param *.uav[55].startZ 778m
param *.uav[56].startX 3537m
param *.uav[56].startY 965m
param *.uav[56].startZ 539m
param *.uav[57].startX 312m
param *.uav[57].startY 1262m
param *.uav[57].startZ 540m
param *.uav[58].startX 2185m
param *.uav[58].startY 3026m
param *.uav[58].startZ 778m
param *.uav[59].startX 3537m
param *.uav[59].startY 965m
param *.uav[59].startZ 539m
param *.uav[60].startX 3537m
param *.uav[60].startY 965m
param *.uav[60].startZ 539m
param *.uav[61].startX 312m
param *.uav[61].startY 1262m
param *.uav[61].startZ 540m
param *.uav[62].startX 2185m
param *.uav[62].startY 3026m
param *.uav[62].startZ 778m
param *.uav[63].startX 3537m
param *.uav[63].startY 965m
param *.uav[63].startZ 539m
param *.uav[64].startX 312m
param *.uav[64].startY 1262m
param *.uav[64].startZ 540m
param *.uav[65].startX 2185m
param *.uav[65].startY 3026m
param *.uav[65].startZ 778m
param *.uav[66].startX 3537m
param *.uav[66].startY 965m
param *.uav[66].startZ 539m
param *.uav[67].startX 312m
param *.uav[67].startY 1262m
param *.uav[67].startZ 540m
param *.uav[68].startX 2185m
param *.uav[68].startY 3026m
param *.uav[68].startZ 778m
param *.uav[69].startX 3537m
param *.uav[69].startY 965m
param *.uav[69].startZ 539m
param *.uav[70].startX 3537m
param *.uav[70].startY 965m
param *.uav[70].startZ 539m
param *.uav[71].startX 312m
param *.uav[71].startY 1262m
param *.uav[71].startZ 540m
param *.uav[72].startX 2185m
param *.uav[72].startY 3026m
param *.uav[72].startZ 778m
param *.uav[73].startX 3537m
param *.uav[73].startY 965m
param *.uav[73].startZ 539m
param *.uav[74].startX 312m
param *.uav[74].startY 1262m
param *.uav[74].startZ 540m
param *.uav[75].startX 2185m
param *.uav[75].startY 3026m
param *.uav[75].startZ 778m
param *.uav[76].startX 3537m
param *.uav[76].startY 965m
param *.uav[76].startZ 539m
param *.uav[77].startX 312m
param *.uav[77].startY 1262m
param *.uav[77].startZ 540m
param *.uav[78].startX 2185m
param *.uav[78].startY 3026m
param *.uav[78].startZ 778m
param *.uav[79].startX 3537m
param *.uav[79].startY 965m
param *.uav[79].startZ 539m
param *.uav[80].startX 3537m
param *.uav[80].startY 965m
param *.uav[80].startZ 539m
param *.uav[81].startX 312m
param *.uav[81].startY 1262m
param *.uav[81].startZ 540m
param *.uav[82].startX 2185m
param *.uav[82].startY 3026m
param *.uav[82].startZ 778m
param *.uav[83].startX 3537m
param *.uav[83].startY 965m
param *.uav[83].startZ 539m
param *.uav[84].startX 312m
param *.uav[84].startY 1262m
param *.uav[84].startZ 540m
param *.uav[85].startX 2185m
param *.uav[85].startY 3026m
param *.uav[85].startZ 778m
param *.uav[86].startX 3537m
param *.uav[86].startY 965m
param *.uav[86].startZ 539m
param *.uav[87].startX 312m
param *.uav[87].startY 1262m
param *.uav[87].startZ 540m
param *.uav[88].startX 2185m
param *.uav[88].startY 3026m
param *.uav[88].startZ 778m
param *.uav[89].startX 3537m
param *.uav[89].startY 965m
param *.uav[89].startZ 539m
param *.uav[90].startX 3537m
param *.uav[90].startY 965m
param *.uav[90].startZ 539m
param *.uav[91].startX 312m
param *.uav[91].startY 1262m
param *.uav[91].startZ 540m
param *.uav[92].startX 2185m
param *.uav[92].startY 3026m
param *.uav[92].startZ 778m
param *.uav[93].startX 3537m
param *.uav[93].startY 965m
param *.uav[93].startZ 539m
param *.uav[94].startX 312m
param *.uav[94].startY 1262m
param *.uav[94].startZ 540m
param *.uav[95].startX 2185m
param *.uav[95].startY 3026m
param *.uav[95].startZ 778m
param *.uav[96].startX 3537m
param *.uav[96].startY 965m
param *.uav[96].startZ 539m
param *.uav[97].startX 312m
param *.uav[97].startY 1262m
param *.uav[97].startZ 540m
param *.uav[98].startX 2185m
param *.uav[98].startY 3026m
param *.uav[98].startZ 778m
param *.uav[99].startX 3537m
param *.uav[99].startY 965m
param *.uav[99].startZ 539m
param *.osgEarthScene.scene "\"boston.earth\""
param *.playgroundLatitude 42.3558
param *.playgroundLongitude -71.0677
param *.playgroundWidth 400m
param *.playgroundHeight 200m
param *.channelController.connectionColor "\"#0000FF40\""
param *.channelController.showConnections false
param *.uav[*].modelURL "\"quadrocopter.small.obj.15.scale.0,0,90.rot\""
param *.uav[*].labelColor "\"#FF7C00CC\""
param *.uav[*].label2Color "\"#FF7C00EE\""
param *.uav[*].batteryCapacity 5200mAh
param *.uav[*].batteryRemaining uav[index].batteryCapacity
param *.uav[*].predictionQuantile 0.95
param *.uav[*].replacementMethod 2
param *.uav[*].weightedSumWeight 0.5
param *.cs[*].modelURL "\"chargingstation_v1.osgt.2.scale.0,0,0.rot.0,0,-15e-1.trans\""
param *.cs[*].spotsWaiting 999
param *.cs[*].spotsCharging 999
param *.cs[*].chargeEffectivenessPercentage 100
param *.cs[*].nonLinearPhaseStartPercentage 85
param *.cs[*].chargeCurrent 6.0A
param *.cs[*].prioritizeFastCharge true
param *.missionControl.replacementSearchMethod 0
param *.*.timeStep 9s

scalar OsgEarthNet.uav[0] utilizationSecMission 545.05972348896
scalar OsgEarthNet.uav[0] utilizationSecMaintenance 427.36308650536
scalar OsgEarthNet.uav[0] utilizationSecCharge 3850
scalar OsgEarthNet.uav[0] utilizationSecIdle 254377.57619001
scalar OsgEarthNet.uav[0] utilizationEnergyMission 2700.031463623
scalar OsgEarthNet.uav[0] utilizationEnergyMaintenance 2080.4501266479
scalar OsgEarthNet.uav[0] utilizationEnergyCharge 4847.1733398438
scalar OsgEarthNet.uav[0] utilizationEnergyOverdrawMission 0
scalar OsgEarthNet.uav[0] utilizationEnergyOverdrawMaintenance 0
scalar OsgEarthNet.uav[0] utilizationCountMissions 1
scalar OsgEarthNet.uav[0] utilizationCountManeuversMission 9
scalar OsgEarthNet.uav[0] utilizationCountManeuversMaintenance 2
scalar OsgEarthNet.uav[0] utilizationCountChargeState 1
scalar OsgEarthNet.uav[0] utilizationCountOverdrawnAfterMission 0
scalar OsgEarthNet.uav[0] utilizationCountIdleState 2
scalar OsgEarthNet.uav[0] utilizationFail 0
scalar OsgEarthNet.uav[0] simulationTime 259200
scalar OsgEarthNet.uav[1] utilizationSecMission 507.8647069725
scalar OsgEarthNet.uav[1] utilizationSecMaintenance 432.03860364029
scalar OsgEarthNet.uav[1] utilizationSecCharge 3650
scalar OsgEarthNet.uav[1] utilizationSecIdle 254610.09568939
scalar OsgEarthNet.uav[1] utilizationEnergyMission 2368.990447998
scalar OsgEarthNet.uav[1] utilizationEnergyMaintenance 2162.0222892761
scalar OsgEarthNet.uav[1] utilizationEnergyCharge 4526.6821289062
scalar OsgEarthNet.uav[1] utilizationEnergyOverdrawMission 0
scalar OsgEarthNet.uav[1] utilizationEnergyOverdrawMaintenance 0
scalar OsgEarthNet.uav[1] utilizationCountMissions 1
scalar OsgEarthNet.uav[1] utilizationCountManeuversMission 8
scalar OsgEarthNet.uav[1] utilizationCountManeuversMaintenance 2
scalar OsgEarthNet.uav[1] utilizationCountChargeState 1
scalar OsgEarthNet.uav[1] utilizationCountOverdrawnAfterMission 0
scalar OsgEarthNet.uav[1] utilizationCountIdleState 2
scalar OsgEarthNet.uav[1] utilizationFail 0
scalar OsgEarthNet.uav[1] simulationTime 259200
scalar OsgEarthNet.uav[2] utilizationSecMission 694.00169469977
scalar OsgEarthNet.uav[2] utilizationSecMaintenance 338.49695459722
scalar OsgEarthNet.uav[2] utilizationSecCharge 3790
scalar OsgEarthNet.uav[2] utilizationSecIdle 254377.5003507
scalar OsgEarthNet.uav[2] utilizationEnergyMission 3194.9886474609
scalar OsgEarthNet.uav[2] utilizationEnergyMaintenance 1534.9154167175
scalar OsgEarthNet.uav[2] utilizationEnergyCharge 4729.9072265625
scalar OsgEarthNet.uav[2] utilizationEnergyOverdrawMission 0
scalar OsgEarthNet.uav[2] utilizationEnergyOverdrawMaintenance 0
scalar OsgEarthNet.uav[2] utilizationCountMissions 1
scalar OsgEarthNet.uav[2] utilizationCountManeuversMission 13
scalar OsgEarthNet.uav[2] utilizationCountManeuversMaintenance 2
scalar OsgEarthNet.uav[2] utilizationCountChargeState 1
scalar OsgEarthNet.uav[2] utilizationCountOverdrawnAfterMission 0
scalar OsgEarthNet.uav[2] utilizationCountIdleState 2
scalar OsgEarthNet.uav[2] utilizationFail 0
scalar OsgEarthNet.uav[2] simulationTime 259200
scalar OsgEarthNet.uav[3] utilizationSecMission 29313.701819449
scalar OsgEarthNet.uav[3] utilizationSecMaintenance 19644.297180551
scalar OsgEarthNet.uav[3] utilizationSecCharge 178540
scalar OsgEarthNet.uav[3] utilizationSecIdle 31702
scalar OsgEarthNet.uav[3] utilizationEnergyMission 136572.08950043
scalar OsgEarthNet.uav[3] utilizationEnergyMaintenance 92307.731002755
scalar OsgEarthNet.uav[3] utilizationEnergyCharge 224132.9296875
scalar OsgEarthNet.uav[3] utilizationEnergyOverdrawMission 0
scalar OsgEarthNet.uav[3] utilizationEnergyOverdrawMaintenance 0
scalar OsgEarthNet.uav[3] utilizationCountMissions 50
scalar OsgEarthNet.uav[3] utilizationCountManeuversMission 482
scalar OsgEarthNet.uav[3] utilizationCountManeuversMaintenance 99
scalar OsgEarthNet.uav[3] utilizationCountChargeState 49
scalar OsgEarthNet.uav[3] utilizationCountOverdrawnAfterMission 0
scalar OsgEarthNet.uav[3] utilizationCountIdleState 50
scalar OsgEarthNet.uav[3] utilizationFail 0
scalar OsgEarthNet.uav[3] simulationTime 259200
scalar OsgEarthNet.uav[4] utilizationSecMission 26230.480621518
scalar OsgEarthNet.uav[4] utilizationSecMaintenance 16663.786949839
scalar OsgEarthNet.uav[4] utilizationSecCharge 155961.28009522
scalar OsgEarthNet.uav[4] utilizationSecIdle 60344.451333426
scalar OsgEarthNet.uav[4] utilizationEnergyMission 121659.20457458
scalar OsgEarthNet.uav[4] utilizationEnergyMaintenance 76531.879497528
scalar OsgEarthNet.uav[4] utilizationEnergyCharge 197153.96679688
scalar OsgEarthNet.uav[4] utilizationEnergyOverdrawMission 0
scalar OsgEarthNet.uav[4] utilizationEnergyOverdrawMaintenance 0
scalar OsgEarthNet.uav[4] utilizationCountMissions 43
scalar OsgEarthNet.uav[4] utilizationCountManeuversMission 429
scalar OsgEarthNet.uav[4] utilizationCountManeuversMaintenance 86
scalar OsgEarthNet.uav[4] utilizationCountChargeState 43
scalar OsgEarthNet.uav[4] utilizationCountOverdrawnAfterMission 0
scalar OsgEarthNet.uav[4] utilizationCountIdleState 43
scalar OsgEarthNet.uav[4] utilizationFail 0
scalar OsgEarthNet.uav[4] simulationTime 259200
scalar OsgEarthNet.uav[5] utilizationSecMission 25276.569822913
scalar OsgEarthNet.uav[5] utilizationSecMaintenance 14291.756127704
scalar OsgEarthNet.uav[5] utilizationSecCharge 145530
scalar OsgEarthNet.uav[5] utilizationSecIdle 74101.673049383
scalar OsgEarthNet.uav[5] utilizationEnergyMission 116800.07679749
scalar OsgEarthNet.uav[5] utilizationEnergyMaintenance 65662.221259673
scalar OsgEarthNet.uav[5] utilizationEnergyCharge 182608.84082031
scalar OsgEarthNet.uav[5] utilizationEnergyOverdrawMission 0
scalar OsgEarthNet.uav[5] utilizationEnergyOverdrawMaintenance 0
scalar OsgEarthNet.uav[5] utilizationCountMissions 40
scalar OsgEarthNet.uav[5] utilizationCountManeuversMission 414
scalar OsgEarthNet.uav[5] utilizationCountManeuversMaintenance 81
scalar OsgEarthNet.uav[5] utilizationCountChargeState 40
scalar OsgEarthNet.uav[5] utilizationCountOverdrawnAfterMission 0
scalar OsgEarthNet.uav[5] utilizationCountIdleState 41
scalar OsgEarthNet.uav[5] utilizationFail 0
scalar OsgEarthNet.uav[5] simulationTime 259200
scalar OsgEarthNet.uav[6] utilizationSecMission 29198.323776182
scalar OsgEarthNet.uav[6] utilizationSecMaintenance 17739.533000542
scalar OsgEarthNet.uav[6] utilizationSecCharge 170638.12293535
scalar OsgEarthNet.uav[6] utilizationSecIdle 41624.019287924
scalar OsgEarthNet.uav[6] utilizationEnergyMission 134306.46387482
scalar OsgEarthNet.uav[6] utilizationEnergyMaintenance 81619.784282684
scalar OsgEarthNet.uav[6] utilizationEnergyCharge 215591.71606445
scalar OsgEarthNet.uav[6] utilizationEnergyOverdrawMission 0
scalar OsgEarthNet.uav[6] utilizationEnergyOverdrawMaintenance 0
scalar OsgEarthNet.uav[6] utilizationCountMissions 47
scalar OsgEarthNet.uav[6] utilizationCountManeuversMission 467
scalar OsgEarthNet.uav[6] utilizationCountManeuversMaintenance 94
scalar OsgEarthNet.uav[6] utilizationCountChargeState 47
scalar OsgEarthNet.uav[6] utilizationCountOverdrawnAfterMission 0
scalar OsgEarthNet.uav[6] utilizationCountIdleState 47
scalar OsgEarthNet.uav[6] utilizationFail 0
scalar OsgEarthNet.uav[6] simulationTime 259200
scalar OsgEarthNet.uav[7] utilizationSecMission 12111.444141075
scalar OsgEarthNet.uav[7] utilizationSecMaintenance 6611.3908120402
scalar OsgEarthNet.uav[7] utilizationSecCharge 66537.940598389
scalar OsgEarthNet.uav[7] utilizationSecIdle 173939.2234485
scalar OsgEarthNet.uav[7] utilizationEnergyMission 56166.866271973
scalar OsgEarthNet.uav[7] utilizationEnergyMaintenance 30643.839206696
scalar OsgEarthNet.uav[7] utilizationEnergyCharge 83995.79296875
scalar OsgEarthNet.uav[7] utilizationEnergyOverdrawMission 0
scalar OsgEarthNet.uav[7] utilizationEnergyOverdrawMaintenance 0
scalar OsgEarthNet.uav[7] utilizationCountMissions 19
scalar OsgEarthNet.uav[7] utilizationCountManeuversMission 196
scalar OsgEarthNet.uav[7] utilizationCountManeuversMaintenance 38
scalar OsgEarthNet.uav[7] utilizationCountChargeState 19
scalar OsgEarthNet.uav[7] utilizationCountOverdrawnAfterMission 0
scalar OsgEarthNet.uav[7] utilizationCountIdleState 19
scalar OsgEarthNet.uav[7] utilizationFail 0
scalar OsgEarthNet.uav[7] simulationTime 259200
scalar OsgEarthNet.uav[8] utilizationSecMission 20407.863351179
scalar OsgEarthNet.uav[8] utilizationSecMaintenance 15073.98625612
scalar OsgEarthNet.uav[8] utilizationSecCharge 129198.51831204
scalar OsgEarthNet.uav[8] utilizationSecIdle 94519.631080665
scalar OsgEarthNet.uav[8] utilizationEnergyMission 93535.481666565
scalar OsgEarthNet.uav[8] utilizationEnergyMaintenance 71393.666488647
scalar OsgEarthNet.uav[8] utilizationEnergyCharge 163130.73291016
scalar OsgEarthNet.uav[8] utilizationEnergyOverdrawMission 0
scalar OsgEarthNet.uav[8] utilizationEnergyOverdrawMaintenance 0
scalar OsgEarthNet.uav[8] utilizationCountMissions 36
scalar OsgEarthNet.uav[8] utilizationCountManeuversMission 327
scalar OsgEarthNet.uav[8] utilizationCountManeuversMaintenance 72
scalar OsgEarthNet.uav[8] utilizationCountChargeState 36
scalar OsgEarthNet.uav[8] utilizationCountOverdrawnAfterMission 0
scalar OsgEarthNet.uav[8] utilizationCountIdleState 36
scalar OsgEarthNet.uav[8] utilizationFail 0
scalar OsgEarthNet.uav[8] simulationTime 259200
scalar OsgEarthNet.uav[9] utilizationSecMission 510.19019122229
scalar OsgEarthNet.uav[9] utilizationSecMaintenance 438.84287141926
scalar OsgEarthNet.uav[9] utilizationSecCharge 3870
scalar OsgEarthNet.uav[9] utilizationSecIdle 254380.96593736
scalar OsgEarthNet.uav[9] utilizationEnergyMission 2548.2670898437
scalar OsgEarthNet.uav[9] utilizationEnergyMaintenance 2393.6647148132
scalar OsgEarthNet.uav[9] utilizationEnergyCharge 4921.6943359375
scalar OsgEarthNet.uav[9] utilizationEnergyOverdrawMission 0
scalar OsgEarthNet.uav[9] utilizationEnergyOverdrawMaintenance 0
scalar OsgEarthNet.uav[9] utilizationCountMissions 1
scalar OsgEarthNet.uav[9] utilizationCountManeuversMission 8
scalar OsgEarthNet.uav[9] utilizationCountManeuversMaintenance 2
scalar OsgEarthNet.uav[9] utilizationCountChargeState 1
scalar OsgEarthNet.uav[9] utilizationCountOverdrawnAfterMission 0
scalar OsgEarthNet.uav[9] utilizationCountIdleState 2
scalar OsgEarthNet.uav[9] utilizationFail 0
scalar OsgEarthNet.uav[9] simulationTime 259200
scalar OsgEarthNet.uav[10] utilizationSecMission 23522.404966467
scalar OsgEarthNet.uav[10] utilizationSecMaintenance 15510.523322613
scalar OsgEarthNet.uav[10] utilizationSecCharge 143700
scalar OsgEarthNet.uav[10] utilizationSecIdle 76467.07071092
scalar OsgEarthNet.uav[10] utilizationEnergyMission 109014.72216797
scalar OsgEarthNet.uav[10] utilizationEnergyMaintenance 71772.22731781
scalar OsgEarthNet.uav[10] utilizationEnergyCharge 181009.17041016
scalar OsgEarthNet.uav[10] utilizationEnergyOverdrawMission 0
scalar OsgEarthNet.uav[10] utilizationEnergyOverdrawMaintenance 0
scalar OsgEarthNet.uav[10] utilizationCountMissions 39
scalar OsgEarthNet.uav[10] utilizationCountManeuversMission 395
scalar OsgEarthNet.uav[10] utilizationCountManeuversMaintenance 78
scalar OsgEarthNet.uav[10] utilizationCountChargeState 39
scalar OsgEarthNet.uav[10] utilizationCountOverdrawnAfterMission 0
scalar OsgEarthNet.uav[10] utilizationCountIdleState 40
scalar OsgEarthNet.uav[10] utilizationFail 0
scalar OsgEarthNet.uav[10] simulationTime 259200
scalar OsgEarthNet.uav[11] utilizationSecMission 14673.856817749
scalar OsgEarthNet.uav[11] utilizationSecMaintenance 12215.926800276
scalar OsgEarthNet.uav[11] utilizationSecCharge 98613.060851851
scalar OsgEarthNet.uav[11] utilizationSecIdle 133697.15453012
scalar OsgEarthNet.uav[11] utilizationEnergyMission 68336.711128235
scalar OsgEarthNet.uav[11] utilizationEnergyMaintenance 55846.023677826
scalar OsgEarthNet.uav[11] utilizationEnergyCharge 123968.10693359
scalar OsgEarthNet.uav[11] utilizationEnergyOverdrawMission 0
scalar OsgEarthNet.uav[11] utilizationEnergyOverdrawMaintenance 0
scalar OsgEarthNet.uav[11] utilizationCountMissions 27
scalar OsgEarthNet.uav[11] utilizationCountManeuversMission 231
scalar OsgEarthNet.uav[11] utilizationCountManeuversMaintenance 54
scalar OsgEarthNet.uav[11] utilizationCountChargeState 27
scalar OsgEarthNet.uav[11] utilizationCountOverdrawnAfterMission 0
scalar OsgEarthNet.uav[11] utilizationCountIdleState 27
scalar OsgEarthNet.uav[11] utilizationFail 0
scalar OsgEarthNet.uav[11] simulationTime 259200
scalar OsgEarthNet.uav[12] utilizationSecMission 836.61593493339
scalar OsgEarthNet.uav[12] utilizationSecMaintenance 137.80524816792
scalar OsgEarthNet.uav[12] utilizationSecCharge 3670
scalar OsgEarthNet.uav[12] utilizationSecIdle 254555.5778169
scalar OsgEarthNet.uav[12] utilizationEnergyMission 3848.7001342773
scalar OsgEarthNet.uav[12] utilizationEnergyMaintenance 625.46198272705
scalar OsgEarthNet.uav[12] utilizationEnergyCharge 4512.5126953125
scalar OsgEarthNet.uav[12] utilizationEnergyOverdrawMission 0
scalar OsgEarthNet.uav[12] utilizationEnergyOverdrawMaintenance 0
scalar OsgEarthNet.uav[12] utilizationCountMissions 1
scalar OsgEarthNet.uav[12] utilizationCountManeuversMission 13
scalar OsgEarthNet.uav[12] utilizationCountManeuversMaintenance 2
scalar OsgEarthNet.uav[12] utilizationCountChargeState 1
scalar OsgEarthNet.uav[12] utilizationCountOverdrawnAfterMission 0
scalar OsgEarthNet.uav[12] utilizationCountIdleState 2
scalar OsgEarthNet.uav[12] utilizationFail 0
scalar OsgEarthNet.uav[12] simulationTime 259200
scalar OsgEarthNet.uav[13] utilizationSecMission 28787.00790323
scalar OsgEarthNet.uav[13] utilizationSecMaintenance 15918.020550069
scalar OsgEarthNet.uav[13] utilizationSecCharge 163930
scalar OsgEarthNet.uav[13] utilizationSecIdle 50564.970546701
scalar OsgEarthNet.uav[13] utilizationEnergyMission 132499.61051941
scalar OsgEarthNet.uav[13] utilizationEnergyMaintenance 73556.461223602
scalar OsgEarthNet.uav[13] utilizationEnergyCharge 205922.10693359
scalar OsgEarthNet.uav[13] utilizationEnergyOverdrawMission 0
scalar OsgEarthNet.uav[13] utilizationEnergyOverdrawMaintenance 0
scalar OsgEarthNet.uav[13] utilizationCountMissions 45
scalar OsgEarthNet.uav[13] utilizationCountManeuversMission 475
scalar OsgEarthNet.uav[13] utilizationCountManeuversMaintenance 90
scalar OsgEarthNet.uav[13] utilizationCountChargeState 45
scalar OsgEarthNet.uav[13] utilizationCountOverdrawnAfterMission 0
scalar OsgEarthNet.uav[13] utilizationCountIdleState 46
scalar OsgEarthNet.uav[13] utilizationFail 0
scalar OsgEarthNet.uav[13] simulationTime 259200
scalar OsgEarthNet.uav[14] utilizationSecMission 26570.582751332
scalar OsgEarthNet.uav[14] utilizationSecMaintenance 18786.08328469
scalar OsgEarthNet.uav[14] utilizationSecCharge 167241.58482725
scalar OsgEarthNet.uav[14] utilizationSecIdle 46601.748136728
scalar OsgEarthNet.uav[14] utilizationEnergyMission 122990.3624649
scalar OsgEarthNet.uav[14] utilizationEnergyMaintenance 87577.195587158
scalar OsgEarthNet.uav[14] utilizationEnergyCharge 210814.00805664
scalar OsgEarthNet.uav[14] utilizationEnergyOverdrawMission 0
scalar OsgEarthNet.uav[14] utilizationEnergyOverdrawMaintenance 0
scalar OsgEarthNet.uav[14] utilizationCountMissions 46
scalar OsgEarthNet.uav[14] utilizationCountManeuversMission 440
scalar OsgEarthNet.uav[14] utilizationCountManeuversMaintenance 92
scalar OsgEarthNet.uav[14] utilizationCountChargeState 46
scalar OsgEarthNet.uav[14] utilizationCountOverdrawnAfterMission 0
scalar OsgEarthNet.uav[14] utilizationCountIdleState 46
scalar OsgEarthNet.uav[14] utilizationFail 0
scalar OsgEarthNet.uav[14] simulationTime 259200
scalar OsgEarthNet.uav[15] utilizationSecMission 25018.934756909
scalar OsgEarthNet.uav[15] utilizationSecMaintenance 18654.116365699
scalar OsgEarthNet.uav[15] utilizationSecCharge 159197.5225301
scalar OsgEarthNet.uav[15] utilizationSecIdle 56329.42534729
scalar OsgEarthNet.uav[15] utilizationEnergyMission 116324.71961975
scalar OsgEarthNet.uav[15] utilizationEnergyMaintenance 85943.086662292
scalar OsgEarthNet.uav[15] utilizationEnergyCharge 200914.59765625
scalar OsgEarthNet.uav[15] utilizationEnergyOverdrawMission 0
scalar OsgEarthNet.uav[15] utilizationEnergyOverdrawMaintenance 0
scalar OsgEarthNet.uav[15] utilizationCountMissions 44
scalar OsgEarthNet.uav[15] utilizationCountManeuversMission 413
scalar OsgEarthNet.uav[15] utilizationCountManeuversMaintenance 88
scalar OsgEarthNet.uav[15] utilizationCountChargeState 44
scalar OsgEarthNet.uav[15] utilizationCountOverdrawnAfterMission 0
scalar OsgEarthNet.uav[15] utilizationCountIdleState 44
scalar OsgEarthNet.uav[15] utilizationFail 0
scalar OsgEarthNet.uav[15] simulationTime 259200
scalar OsgEarthNet.uav[16] utilizationSecMission 31146.86555278
scalar OsgEarthNet.uav[16] utilizationSecMaintenance 16002.563014163
scalar OsgEarthNet.uav[16] utilizationSecCharge 171820
scalar OsgEarthNet.uav[16] utilizationSecIdle 40230.570433056
scalar OsgEarthNet.uav[16] utilizationEnergyMission 143959.83346408
scalar OsgEarthNet.uav[16] utilizationEnergyMaintenance 75004.232131958
scalar OsgEarthNet.uav[16] utilizationEnergyCharge 216126.55078125
scalar OsgEarthNet.uav[16] utilizationEnergyOverdrawMission 0
scalar OsgEarthNet.uav[16] utilizationEnergyOverdrawMaintenance 0
scalar OsgEarthNet.uav[16] utilizationCountMissions 47
scalar OsgEarthNet.uav[16] utilizationCountManeuversMission 505
scalar OsgEarthNet.uav[16] utilizationCountManeuversMaintenance 95
scalar OsgEarthNet.uav[16] utilizationCountChargeState 47
scalar OsgEarthNet.uav[16] utilizationCountOverdrawnAfterMission 0
scalar OsgEarthNet.uav[16] utilizationCountIdleState 48
scalar OsgEarthNet.uav[16] utilizationFail 0
scalar OsgEarthNet.uav[16] simulationTime 259200
scalar OsgEarthNet.uav[17] utilizationSecMission 19549.938510231
scalar OsgEarthNet.uav[17] utilizationSecMaintenance 12088.239132255
scalar OsgEarthNet.uav[17] utilizationSecCharge 112293.62930634
scalar OsgEarthNet.uav[17] utilizationSecIdle 115268.19205117
scalar OsgEarthNet.uav[17] utilizationEnergyMission 89285.698867798
scalar OsgEarthNet.uav[17] utilizationEnergyMaintenance 56267.706493378
scalar OsgEarthNet.uav[17] utilizationEnergyCharge 140796.97085571
scalar OsgEarthNet.uav[17] utilizationEnergyOverdrawMission 0
scalar OsgEarthNet.uav[17] utilizationEnergyOverdrawMaintenance 0
scalar OsgEarthNet.uav[17] utilizationCountMissions 32
scalar OsgEarthNet.uav[17] utilizationCountManeuversMission 330
scalar OsgEarthNet.uav[17] utilizationCountManeuversMaintenance 64
scalar OsgEarthNet.uav[17] utilizationCountChargeState 32
scalar OsgEarthNet.uav[17] utilizationCountOverdrawnAfterMission 0
scalar OsgEarthNet.uav[17] utilizationCountIdleState 32
scalar OsgEarthNet.uav[17] utilizationFail 0
scalar OsgEarthNet.uav[17] simulationTime 259200
scalar OsgEarthNet.uav[18] utilizationSecMission 26849.251934952
scalar OsgEarthNet.uav[18] utilizationSecMaintenance 19322.542818082
scalar OsgEarthNet.uav[18] utilizationSecCharge 170143.70630579
scalar OsgEarthNet.uav[18] utilizationSecIdle 42884.497941176
scalar OsgEarthNet.uav[18] utilizationEnergyMission 126235.69282532
scalar OsgEarthNet.uav[18] utilizationEnergyMaintenance 89230.415420532
scalar OsgEarthNet.uav[18] utilizationEnergyCharge 214673.85449219
scalar OsgEarthNet.uav[18] utilizationEnergyOverdrawMission 0
scalar OsgEarthNet.uav[18] utilizationEnergyOverdrawMaintenance 0
scalar OsgEarthNet.uav[18] utilizationCountMissions 47
scalar OsgEarthNet.uav[18] utilizationCountManeuversMission 445
scalar OsgEarthNet.uav[18] utilizationCountManeuversMaintenance 94
scalar OsgEarthNet.uav[18] utilizationCountChargeState 47
scalar OsgEarthNet.uav[18] utilizationCountOverdrawnAfterMission 0
scalar OsgEarthNet.uav[18] utilizationCountIdleState 47
scalar OsgEarthNet.uav[18] utilizationFail 0
scalar OsgEarthNet.uav[18] simulationTime 259200
scalar OsgEarthNet.uav[19] utilizationSecMission 27465.922881945
scalar OsgEarthNet.uav[19] utilizationSecMaintenance 18151.262788915
scalar OsgEarthNet.uav[19] utilizationSecCharge 165976.79171794
scalar OsgEarthNet.uav[19] utilizationSecIdle 47606.021611199
scalar OsgEarthNet.uav[19] utilizationEnergyMission 127670.11554718
scalar OsgEarthNet.uav[19] utilizationEnergyMaintenance 84494.730140686
scalar OsgEarthNet.uav[19] utilizationEnergyCharge 209286.43896484
scalar OsgEarthNet.uav[19] utilizationEnergyOverdrawMission 0
scalar OsgEarthNet.uav[19] utilizationEnergyOverdrawMaintenance 0
scalar OsgEarthNet.uav[19] utilizationCountMissions 46
scalar OsgEarthNet.uav[19] utilizationCountManeuversMission 451
scalar OsgEarthNet.uav[19] utilizationCountManeuversMaintenance 92
scalar OsgEarthNet.uav[19] utilizationCountChargeState 46
scalar OsgEarthNet.uav[19] utilizationCountOverdrawnAfterMission 0
scalar OsgEarthNet.uav[19] utilizationCountIdleState 46
scalar OsgEarthNet.uav[19] utilizationFail 0
scalar OsgEarthNet.uav[19] simulationTime 259200
scalar OsgEarthNet.uav[20] utilizationSecMission 650.68693590098
scalar OsgEarthNet.uav[20] utilizationSecMaintenance 350.31285707965
scalar OsgEarthNet.uav[20] utilizationSecCharge 3700
scalar OsgEarthNet.uav[20] utilizationSecIdle 254498.99920702
scalar OsgEarthNet.uav[20] utilizationEnergyMission 2895.6297302246
scalar OsgEarthNet.uav[20] utilizationEnergyMaintenance 1739.1166000366
scalar OsgEarthNet.uav[20] utilizationEnergyCharge 4634.7470703125
scalar OsgEarthNet.uav[20] utilizationEnergyOverdrawMission 0
scalar OsgEarthNet.uav[20] utilizationEnergyOverdrawMaintenance 0
scalar OsgEarthNet.uav[20] utilizationCountMissions 1
scalar OsgEarthNet.uav[20] utilizationCountManeuversMission 9
scalar OsgEarthNet.uav[20] utilizationCountManeuversMaintenance 2
scalar OsgEarthNet.uav[20] utilizationCountChargeState 1
scalar OsgEarthNet.uav[20] utilizationCountOverdrawnAfterMission 0
scalar OsgEarthNet.uav[20] utilizationCountIdleState 2
scalar OsgEarthNet.uav[20] utilizationFail 0
scalar OsgEarthNet.uav[20] simulationTime 259200
scalar OsgEarthNet.uav[21] utilizationSecMission 597.53391521556
scalar OsgEarthNet.uav[21] utilizationSecMaintenance 388.71128889908
scalar OsgEarthNet.uav[21] utilizationSecCharge 3790
scalar OsgEarthNet.uav[21] utilizationSecIdle 254423.75379589
scalar OsgEarthNet.uav[21] utilizationEnergyMission 2905.7765045166
scalar OsgEarthNet.uav[21] utilizationEnergyMaintenance 1812.5130424499
scalar OsgEarthNet.uav[21] utilizationEnergyCharge 4762.1147460938
scalar OsgEarthNet.uav[21] utilizationEnergyOverdrawMission 0
scalar OsgEarthNet.uav[21] utilizationEnergyOverdrawMaintenance 0
scalar OsgEarthNet.uav[21] utilizationCountMissions 1
scalar OsgEarthNet.uav[21] utilizationCountManeuversMission 9
scalar OsgEarthNet.uav[21] utilizationCountManeuversMaintenance 2
scalar OsgEarthNet.uav[21] utilizationCountChargeState 1
scalar OsgEarthNet.uav[21] utilizationCountOverdrawnAfterMission 0
scalar OsgEarthNet.uav[21] utilizationCountIdleState 2
scalar OsgEarthNet.uav[21] utilizationFail 0
scalar OsgEarthNet.uav[21] simulationTime 259200
scalar OsgEarthNet.uav[22] utilizationSecMission 30241.04218549
scalar OsgEarthNet.uav[22] utilizationSecMaintenance 19088.654698087
scalar OsgEarthNet.uav[22] utilizationSecCharge 179658.30211642
scalar OsgEarthNet.uav[22] utilizationSecIdle 30212
scalar OsgEarthNet.uav[22] utilizationEnergyMission 141412.49147951
scalar OsgEarthNet.uav[22] utilizationEnergyMaintenance 89461.500801086
scalar OsgEarthNet.uav[22] utilizationEnergyCharge 225912.84741211
scalar OsgEarthNet.uav[22] utilizationEnergyOverdrawMission 0
scalar OsgEarthNet.uav[22] utilizationEnergyOverdrawMaintenance 0
scalar OsgEarthNet.uav[22] utilizationCountMissions 50
scalar OsgEarthNet.uav[22] utilizationCountManeuversMission 508
scalar OsgEarthNet.uav[22] utilizationCountManeuversMaintenance 99
scalar OsgEarthNet.uav[22] utilizationCountChargeState 50
scalar OsgEarthNet.uav[22] utilizationCountOverdrawnAfterMission 0
scalar OsgEarthNet.uav[22] utilizationCountIdleState 50
scalar OsgEarthNet.uav[22] utilizationFail 0
scalar OsgEarthNet.uav[22] simulationTime 259200
scalar OsgEarthNet.uav[23] utilizationSecMission 30372.273724964
scalar OsgEarthNet.uav[23] utilizationSecMaintenance 19190.342077517
scalar OsgEarthNet.uav[23] utilizationSecCharge 180005.38319752
scalar OsgEarthNet.uav[23] utilizationSecIdle 29632
scalar OsgEarthNet.uav[23] utilizationEnergyMission 140007.46598816
scalar OsgEarthNet.uav[23] utilizationEnergyMaintenance 88838.19719696
scalar OsgEarthNet.uav[23] utilizationEnergyCharge 226564.43017578
scalar OsgEarthNet.uav[23] utilizationEnergyOverdrawMission 0
scalar OsgEarthNet.uav[23] utilizationEnergyOverdrawMaintenance 0
scalar OsgEarthNet.uav[23] utilizationCountMissions 50
scalar OsgEarthNet.uav[23] utilizationCountManeuversMission 492
scalar OsgEarthNet.uav[23] utilizationCountManeuversMaintenance 99
scalar OsgEarthNet.uav[23] utilizationCountChargeState 50
scalar OsgEarthNet.uav[23] utilizationCountOverdrawnAfterMission 0
scalar OsgEarthNet.uav[23] utilizationCountIdleState 50
scalar OsgEarthNet.uav[23] utilizationFail 0
scalar OsgEarthNet.uav[23] simulationTime 259200
scalar OsgEarthNet.uav[24] utilizationSecMission 443.5870541303
scalar OsgEarthNet.uav[24] utilizationSecMaintenance 494.47431392059
scalar OsgEarthNet.uav[24] utilizationSecCharge 3630
scalar OsgEarthNet.uav[24] utilizationSecIdle 254631.93763195
scalar OsgEarthNet.uav[24] utilizationEnergyMission 2015.6532440186
scalar OsgEarthNet.uav[24] utilizationEnergyMaintenance 2472.4260063171
scalar OsgEarthNet.uav[24] utilizationEnergyCharge 4509.1845703125
scalar OsgEarthNet.uav[24] utilizationEnergyOverdrawMission 0
scalar OsgEarthNet.uav[24] utilizationEnergyOverdrawMaintenance 0
scalar OsgEarthNet.uav[24] utilizationCountMissions 1
scalar OsgEarthNet.uav[24] utilizationCountManeuversMission 7
scalar OsgEarthNet.uav[24] utilizationCountManeuversMaintenance 2
scalar OsgEarthNet.uav[24] utilizationCountChargeState 1
scalar OsgEarthNet.uav[24] utilizationCountOverdrawnAfterMission 0
scalar OsgEarthNet.uav[24] utilizationCountIdleState 2
scalar OsgEarthNet.uav[24] utilizationFail 0
scalar OsgEarthNet.uav[24] simulationTime 259200
scalar OsgEarthNet.uav[25] utilizationSecMission 17293.483062869
scalar OsgEarthNet.uav[25] utilizationSecMaintenance 11700.286491692
scalar OsgEarthNet.uav[25] utilizationSecCharge 105720
scalar OsgEarthNet.uav[25] utilizationSecIdle 124486.22944544
scalar OsgEarthNet.uav[25] utilizationEnergyMission 79232.925987244
scalar OsgEarthNet.uav[25] utilizationEnergyMaintenance 53893.023902893
scalar OsgEarthNet.uav[25] utilizationEnergyCharge 132877.93457031
scalar OsgEarthNet.uav[25] utilizationEnergyOverdrawMission 0
scalar OsgEarthNet.uav[25] utilizationEnergyOverdrawMaintenance 0
scalar OsgEarthNet.uav[25] utilizationCountMissions 29
scalar OsgEarthNet.uav[25] utilizationCountManeuversMission 275
scalar OsgEarthNet.uav[25] utilizationCountManeuversMaintenance 58
scalar OsgEarthNet.uav[25] utilizationCountChargeState 29
scalar OsgEarthNet.uav[25] utilizationCountOverdrawnAfterMission 0
scalar OsgEarthNet.uav[25] utilizationCountIdleState 30
scalar OsgEarthNet.uav[25] utilizationFail 0
scalar OsgEarthNet.uav[25] simulationTime 259200
scalar OsgEarthNet.uav[26] utilizationSecMission 18757.465783722
scalar OsgEarthNet.uav[26] utilizationSecMaintenance 14979.572300382
scalar OsgEarthNet.uav[26] utilizationSecCharge 124340
scalar OsgEarthNet.uav[26] utilizationSecIdle 101122.9609159
scalar OsgEarthNet.uav[26] utilizationEnergyMission 87470.923782349
scalar OsgEarthNet.uav[26] utilizationEnergyMaintenance 69509.131263733
scalar OsgEarthNet.uav[26] utilizationEnergyCharge 156663.3737793
scalar OsgEarthNet.uav[26] utilizationEnergyOverdrawMission 0
scalar OsgEarthNet.uav[26] utilizationEnergyOverdrawMaintenance 0
scalar OsgEarthNet.uav[26] utilizationCountMissions 34
scalar OsgEarthNet.uav[26] utilizationCountManeuversMission 312
scalar OsgEarthNet.uav[26] utilizationCountManeuversMaintenance 68
scalar OsgEarthNet.uav[26] utilizationCountChargeState 34
scalar OsgEarthNet.uav[26] utilizationCountOverdrawnAfterMission 0
scalar OsgEarthNet.uav[26] utilizationCountIdleState 35
scalar OsgEarthNet.uav[26] utilizationFail 0
scalar OsgEarthNet.uav[26] simulationTime 259200
scalar OsgEarthNet.uav[27] utilizationSecMission 5789.9913953838
scalar OsgEarthNet.uav[27] utilizationSecMaintenance 2996.2115715278
scalar OsgEarthNet.uav[27] utilizationSecCharge 32390
scalar OsgEarthNet.uav[27] utilizationSecIdle 218023.79603309
scalar OsgEarthNet.uav[27] utilizationEnergyMission 26541.088912964
scalar OsgEarthNet.uav[27] utilizationEnergyMaintenance 13940.732902527
scalar OsgEarthNet.uav[27] utilizationEnergyCharge 40551.890380859
scalar OsgEarthNet.uav[27] utilizationEnergyOverdrawMission 0
scalar OsgEarthNet.uav[27] utilizationEnergyOverdrawMaintenance 0
scalar OsgEarthNet.uav[27] utilizationCountMissions 9
scalar OsgEarthNet.uav[27] utilizationCountManeuversMission 92
scalar OsgEarthNet.uav[27] utilizationCountManeuversMaintenance 18
scalar OsgEarthNet.uav[27] utilizationCountChargeState 9
scalar OsgEarthNet.uav[27] utilizationCountOverdrawnAfterMission 0
scalar OsgEarthNet.uav[27] utilizationCountIdleState 10
scalar OsgEarthNet.uav[27] utilizationFail 0
scalar OsgEarthNet.uav[27] simulationTime 259200
scalar OsgEarthNet.uav[28] utilizationSecMission 30555.348040296
scalar OsgEarthNet.uav[28] utilizationSecMaintenance 17251.753225685
scalar OsgEarthNet.uav[28] utilizationSecCharge 172763.6781201
scalar OsgEarthNet.uav[28] utilizationSecIdle 38629.219613916
scalar OsgEarthNet.uav[28] utilizationEnergyMission 140960.94792557
scalar OsgEarthNet.uav[28] utilizationEnergyMaintenance 80636.033676147
scalar OsgEarthNet.uav[28] utilizationEnergyCharge 217695.68365479
scalar OsgEarthNet.uav[28] utilizationEnergyOverdrawMission 0
scalar OsgEarthNet.uav[28] utilizationEnergyOverdrawMaintenance 0
scalar OsgEarthNet.uav[28] utilizationCountMissions 48
scalar OsgEarthNet.uav[28] utilizationCountManeuversMission 494
scalar OsgEarthNet.uav[28] utilizationCountManeuversMaintenance 96
scalar OsgEarthNet.uav[28] utilizationCountChargeState 48
scalar OsgEarthNet.uav[28] utilizationCountOverdrawnAfterMission 0
scalar OsgEarthNet.uav[28] utilizationCountIdleState 48
scalar OsgEarthNet.uav[28] utilizationFail 0
scalar OsgEarthNet.uav[28] simulationTime 259200
scalar OsgEarthNet.uav[29] utilizationSecMission 26020.287977303
scalar OsgEarthNet.uav[29] utilizationSecMaintenance 17401.031124637
scalar OsgEarthNet.uav[29] utilizationSecCharge 158955.60484717
scalar OsgEarthNet.uav[29] utilizationSecIdle 56823.075050886
scalar OsgEarthNet.uav[29] utilizationEnergyMission 120629.78334808
scalar OsgEarthNet.uav[29] utilizationEnergyMaintenance 80940.224014282
scalar OsgEarthNet.uav[29] utilizationEnergyCharge 200595.68115234
scalar OsgEarthNet.uav[29] utilizationEnergyOverdrawMission 0
scalar OsgEarthNet.uav[29] utilizationEnergyOverdrawMaintenance 0
scalar OsgEarthNet.uav[29] utilizationCountMissions 44
scalar OsgEarthNet.uav[29] utilizationCountManeuversMission 416
scalar OsgEarthNet.uav[29] utilizationCountManeuversMaintenance 88
scalar OsgEarthNet.uav[29] utilizationCountChargeState 44
scalar OsgEarthNet.uav[29] utilizationCountOverdrawnAfterMission 0
scalar OsgEarthNet.uav[29] utilizationCountIdleState 44
scalar OsgEarthNet.uav[29] utilizationFail 0
scalar OsgEarthNet.uav[29] simulationTime 259200
scalar OsgEarthNet.uav[30] utilizationSecMission 28005.017752721
scalar OsgEarthNet.uav[30] utilizationSecMaintenance 20010.405156093
scalar OsgEarthNet.uav[30] utilizationSecCharge 175894.63181334
scalar OsgEarthNet.uav[30] utilizationSecIdle 35289.944277845
scalar OsgEarthNet.uav[30] utilizationEnergyMission 129448.60070038
scalar OsgEarthNet.uav[30] utilizationEnergyMaintenance 93944.617687225
scalar OsgEarthNet.uav[30] utilizationEnergyCharge 220998.70629883
scalar OsgEarthNet.uav[30] utilizationEnergyOverdrawMission 0
scalar OsgEarthNet.uav[30] utilizationEnergyOverdrawMaintenance 0
scalar OsgEarthNet.uav[30] utilizationCountMissions 49
scalar OsgEarthNet.uav[30] utilizationCountManeuversMission 451
scalar OsgEarthNet.uav[30] utilizationCountManeuversMaintenance 98
scalar OsgEarthNet.uav[30] utilizationCountChargeState 49
scalar OsgEarthNet.uav[30] utilizationCountOverdrawnAfterMission 0
scalar OsgEarthNet.uav[30] utilizationCountIdleState 49
scalar OsgEarthNet.uav[30] utilizationFail 0
scalar OsgEarthNet.uav[30] simulationTime 259200
scalar OsgEarthNet.uav[31] utilizationSecMission 28748.225199007
scalar OsgEarthNet.uav[31] utilizationSecMaintenance 20199.314266864
scalar OsgEarthNet.uav[31] utilizationSecCharge 176960.45953413
scalar OsgEarthNet.uav[31] utilizationSecIdle 33292
scalar OsgEarthNet.uav[31] utilizationEnergyMission 132586.52326202
scalar OsgEarthNet.uav[31] utilizationEnergyMaintenance 94402.795036316
scalar OsgEarthNet.uav[31] utilizationEnergyCharge 222743.97033691
scalar OsgEarthNet.uav[31] utilizationEnergyOverdrawMission 0
scalar OsgEarthNet.uav[31] utilizationEnergyOverdrawMaintenance 287.39874267578
scalar OsgEarthNet.uav[31] utilizationCountMissions 49
scalar OsgEarthNet.uav[31] utilizationCountManeuversMission 474
scalar OsgEarthNet.uav[31] utilizationCountManeuversMaintenance 97
scalar OsgEarthNet.uav[31] utilizationCountChargeState 49
scalar OsgEarthNet.uav[31] utilizationCountOverdrawnAfterMission 1
scalar OsgEarthNet.uav[31] utilizationCountIdleState 49
scalar OsgEarthNet.uav[31] utilizationFail 0
scalar OsgEarthNet.uav[31] simulationTime 259200
scalar OsgEarthNet.uav[32] utilizationSecMission 1919.5461150599
scalar OsgEarthNet.uav[32] utilizationSecMaintenance 1105.1074274904
scalar OsgEarthNet.uav[32] utilizationSecCharge 11020
scalar OsgEarthNet.uav[32] utilizationSecIdle 245155.34545745
scalar OsgEarthNet.uav[32] utilizationEnergyMission 8982.9632110596
scalar OsgEarthNet.uav[32] utilizationEnergyMaintenance 4869.3730621338
scalar OsgEarthNet.uav[32] utilizationEnergyCharge 13852.869628906
scalar OsgEarthNet.uav[32] utilizationEnergyOverdrawMission 0
scalar OsgEarthNet.uav[32] utilizationEnergyOverdrawMaintenance 0
scalar OsgEarthNet.uav[32] utilizationCountMissions 3
scalar OsgEarthNet.uav[32] utilizationCountManeuversMission 31
scalar OsgEarthNet.uav[32] utilizationCountManeuversMaintenance 6
scalar OsgEarthNet.uav[32] utilizationCountChargeState 3
scalar OsgEarthNet.uav[32] utilizationCountOverdrawnAfterMission 0
scalar OsgEarthNet.uav[32] utilizationCountIdleState 4
scalar OsgEarthNet.uav[32] utilizationFail 0
scalar OsgEarthNet.uav[32] simulationTime 259200
scalar OsgEarthNet.uav[33] utilizationSecMission 557.08549766445
scalar OsgEarthNet.uav[33] utilizationSecMaintenance 423.57904092458
scalar OsgEarthNet.uav[33] utilizationSecCharge 3670
scalar OsgEarthNet.uav[33] utilizationSecIdle 254549.33446141
scalar OsgEarthNet.uav[33] utilizationEnergyMission 2536.4202270508
scalar OsgEarthNet.uav[33] utilizationEnergyMaintenance 2097.4309310913
scalar OsgEarthNet.uav[33] utilizationEnergyCharge 4554.7216796875
scalar OsgEarthNet.uav[33] utilizationEnergyOverdrawMission 0
scalar OsgEarthNet.uav[33] utilizationEnergyOverdrawMaintenance 0
scalar OsgEarthNet.uav[33] utilizationCountMissions 1
scalar OsgEarthNet.uav[33] utilizationCountManeuversMission 9
scalar OsgEarthNet.uav[33] utilizationCountManeuversMaintenance 2
scalar OsgEarthNet.uav[33] utilizationCountChargeState 1
scalar OsgEarthNet.uav[33] utilizationCountOverdrawnAfterMission 0
scalar OsgEarthNet.uav[33] utilizationCountIdleState 2
scalar OsgEarthNet.uav[33] utilizationFail 0
scalar OsgEarthNet.uav[33] simulationTime 259200
scalar OsgEarthNet.uav[34] utilizationSecMission 28847.185705343
scalar OsgEarthNet.uav[34] utilizationSecMaintenance 18481.497157383
scalar OsgEarthNet.uav[34] utilizationSecCharge 171502.27119724
scalar OsgEarthNet.uav[34] utilizationSecIdle 40369.044940029
scalar OsgEarthNet.uav[34] utilizationEnergyMission 133063.75081253
scalar OsgEarthNet.uav[34] utilizationEnergyMaintenance 85876.523647308
scalar OsgEarthNet.uav[34] utilizationEnergyCharge 215465.44970703
scalar OsgEarthNet.uav[34] utilizationEnergyOverdrawMission 0
scalar OsgEarthNet.uav[34] utilizationEnergyOverdrawMaintenance 0
scalar OsgEarthNet.uav[34] utilizationCountMissions 48
scalar OsgEarthNet.uav[34] utilizationCountManeuversMission 469
scalar OsgEarthNet.uav[34] utilizationCountManeuversMaintenance 96
scalar OsgEarthNet.uav[34] utilizationCountChargeState 48
scalar OsgEarthNet.uav[34] utilizationCountOverdrawnAfterMission 0
scalar OsgEarthNet.uav[34] utilizationCountIdleState 48
scalar OsgEarthNet.uav[34] utilizationFail 0
scalar OsgEarthNet.uav[34] simulationTime 259200
scalar OsgEarthNet.uav[35] utilizationSecMission 7197.989240501
scalar OsgEarthNet.uav[35] utilizationSecMaintenance 4544.6474923137
scalar OsgEarthNet.uav[35] utilizationSecCharge 44010
scalar OsgEarthNet.uav[35] utilizationSecIdle 203447.36226719
scalar OsgEarthNet.uav[35] utilizationEnergyMission 33773.982437134
scalar OsgEarthNet.uav[35] utilizationEnergyMaintenance 21835.174057007
scalar OsgEarthNet.uav[35] utilizationEnergyCharge 55265.458984375
scalar OsgEarthNet.uav[35] utilizationEnergyOverdrawMission 0
scalar OsgEarthNet.uav[35] utilizationEnergyOverdrawMaintenance 0
scalar OsgEarthNet.uav[35] utilizationCountMissions 12
scalar OsgEarthNet.uav[35] utilizationCountManeuversMission 116
scalar OsgEarthNet.uav[35] utilizationCountManeuversMaintenance 24
scalar OsgEarthNet.uav[35] utilizationCountChargeState 12
scalar OsgEarthNet.uav[35] utilizationCountOverdrawnAfterMission 0
scalar OsgEarthNet.uav[35] utilizationCountIdleState 13
scalar OsgEarthNet.uav[35] utilizationFail 0
scalar OsgEarthNet.uav[35] simulationTime 259200
scalar OsgEarthNet.uav[36] utilizationSecMission 14502.803552268
scalar OsgEarthNet.uav[36] utilizationSecMaintenance 11611.214738587
scalar OsgEarthNet.uav[36] utilizationSecCharge 96857.578340773
scalar OsgEarthNet.uav[36] utilizationSecIdle 136228.40236837
scalar OsgEarthNet.uav[36] utilizationEnergyMission 67307.730751038
scalar OsgEarthNet.uav[36] utilizationEnergyMaintenance 54011.395950317
scalar OsgEarthNet.uav[36] utilizationEnergyCharge 121338.36425781
scalar OsgEarthNet.uav[36] utilizationEnergyOverdrawMission 0
scalar OsgEarthNet.uav[36] utilizationEnergyOverdrawMaintenance 0
scalar OsgEarthNet.uav[36] utilizationCountMissions 27
scalar OsgEarthNet.uav[36] utilizationCountManeuversMission 236
scalar OsgEarthNet.uav[36] utilizationCountManeuversMaintenance 54
scalar OsgEarthNet.uav[36] utilizationCountChargeState 27
scalar OsgEarthNet.uav[36] utilizationCountOverdrawnAfterMission 0
scalar OsgEarthNet.uav[36] utilizationCountIdleState 27
scalar OsgEarthNet.uav[36] utilizationFail 0
scalar OsgEarthNet.uav[36] simulationTime 259200
scalar OsgEarthNet.uav[37] utilizationSecMission 27852.111144287
scalar OsgEarthNet.uav[37] utilizationSecMaintenance 16947.312607597
scalar OsgEarthNet.uav[37] utilizationSecCharge 164376.75819302
scalar OsgEarthNet.uav[37] utilizationSecIdle 50023.817055099
scalar OsgEarthNet.uav[37] utilizationEnergyMission 129867.99029541
scalar OsgEarthNet.uav[37] utilizationEnergyMaintenance 77815.628231049
scalar OsgEarthNet.uav[37] utilizationEnergyCharge 207818.69726562
scalar OsgEarthNet.uav[37] utilizationEnergyOverdrawMission 0
scalar OsgEarthNet.uav[37] utilizationEnergyOverdrawMaintenance 0
scalar OsgEarthNet.uav[37] utilizationCountMissions 45
scalar OsgEarthNet.uav[37] utilizationCountManeuversMission 463
scalar OsgEarthNet.uav[37] utilizationCountManeuversMaintenance 90
scalar OsgEarthNet.uav[37] utilizationCountChargeState 45
scalar OsgEarthNet.uav[37] utilizationCountOverdrawnAfterMission 0
scalar OsgEarthNet.uav[37] utilizationCountIdleState 45
scalar OsgEarthNet.uav[37] utilizationFail 0
scalar OsgEarthNet.uav[37] simulationTime 259200
scalar OsgEarthNet.uav[38] utilizationSecMission 29402.068799085
scalar OsgEarthNet.uav[38] utilizationSecMaintenance 18394.676514412
scalar OsgEarthNet.uav[38] utilizationSecCharge 174360
scalar OsgEarthNet.uav[38] utilizationSecIdle 37043.253686503
scalar OsgEarthNet.uav[38] utilizationEnergyMission 133451.69070488
scalar OsgEarthNet.uav[38] utilizationEnergyMaintenance 85630.935504913
scalar OsgEarthNet.uav[38] utilizationEnergyCharge 218533.64135742
scalar OsgEarthNet.uav[38] utilizationEnergyOverdrawMission 0
scalar OsgEarthNet.uav[38] utilizationEnergyOverdrawMaintenance 0
scalar OsgEarthNet.uav[38] utilizationCountMissions 48
scalar OsgEarthNet.uav[38] utilizationCountManeuversMission 476
scalar OsgEarthNet.uav[38] utilizationCountManeuversMaintenance 97
scalar OsgEarthNet.uav[38] utilizationCountChargeState 48
scalar OsgEarthNet.uav[38] utilizationCountOverdrawnAfterMission 0
scalar OsgEarthNet.uav[38] utilizationCountIdleState 49
scalar OsgEarthNet.uav[38] utilizationFail 0
scalar OsgEarthNet.uav[38] simulationTime 259200
scalar OsgEarthNet.uav[39] utilizationSecMission 27236.015174134
scalar OsgEarthNet.uav[39] utilizationSecMaintenance 18102.161085404
scalar OsgEarthNet.uav[39] utilizationSecCharge 168510
scalar OsgEarthNet.uav[39] utilizationSecIdle 45351.822740463
scalar OsgEarthNet.uav[39] utilizationEnergyMission 127249.7287941
scalar OsgEarthNet.uav[39] utilizationEnergyMaintenance 84741.129129974
scalar OsgEarthNet.uav[39] utilizationEnergyCharge 211887.015625
scalar OsgEarthNet.uav[39] utilizationEnergyOverdrawMission 0
scalar OsgEarthNet.uav[39] utilizationEnergyOverdrawMaintenance 0
scalar OsgEarthNet.uav[39] utilizationCountMissions 46
scalar OsgEarthNet.uav[39] utilizationCountManeuversMission 453
scalar OsgEarthNet.uav[39] utilizationCountManeuversMaintenance 93
scalar OsgEarthNet.uav[39] utilizationCountChargeState 46
scalar OsgEarthNet.uav[39] utilizationCountOverdrawnAfterMission 0
scalar OsgEarthNet.uav[39] utilizationCountIdleState 47
scalar OsgEarthNet.uav[39] utilizationFail 0
scalar OsgEarthNet.uav[39] simulationTime 259200
scalar OsgEarthNet.uav[40] utilizationSecMission 313.66140879233
scalar OsgEarthNet.uav[40] utilizationSecMaintenance 473.03391658586
scalar OsgEarthNet.uav[40] utilizationSecCharge 3210
scalar OsgEarthNet.uav[40] utilizationSecIdle 255203.30367462
scalar OsgEarthNet.uav[40] utilizationEnergyMission 1546.7766723633
scalar OsgEarthNet.uav[40] utilizationEnergyMaintenance 2246.971031189
scalar OsgEarthNet.uav[40] utilizationEnergyCharge 3793.748046875
scalar OsgEarthNet.uav[40] utilizationEnergyOverdrawMission 0
scalar OsgEarthNet.uav[40] utilizationEnergyOverdrawMaintenance 0
scalar OsgEarthNet.uav[40] utilizationCountMissions 1
scalar OsgEarthNet.uav[40] utilizationCountManeuversMission 5
scalar OsgEarthNet.uav[40] utilizationCountManeuversMaintenance 2
scalar OsgEarthNet.uav[40] utilizationCountChargeState 1
scalar OsgEarthNet.uav[40] utilizationCountOverdrawnAfterMission 0
scalar OsgEarthNet.uav[40] utilizationCountIdleState 2
scalar OsgEarthNet.uav[40] utilizationFail 0
scalar OsgEarthNet.uav[40] simulationTime 259200
scalar OsgEarthNet.uav[41] utilizationSecMission 29024.368383874
scalar OsgEarthNet.uav[41] utilizationSecMaintenance 19109.068098079
scalar OsgEarthNet.uav[41] utilizationSecCharge 176870
scalar OsgEarthNet.uav[41] utilizationSecIdle 34196.562518047
scalar OsgEarthNet.uav[41] utilizationEnergyMission 133298.51286316
scalar OsgEarthNet.uav[41] utilizationEnergyMaintenance 87997.809288025
scalar OsgEarthNet.uav[41] utilizationEnergyCharge 221381.22631836
scalar OsgEarthNet.uav[41] utilizationEnergyOverdrawMission 0
scalar OsgEarthNet.uav[41] utilizationEnergyOverdrawMaintenance 0
scalar OsgEarthNet.uav[41] utilizationCountMissions 49
scalar OsgEarthNet.uav[41] utilizationCountManeuversMission 483
scalar OsgEarthNet.uav[41] utilizationCountManeuversMaintenance 98
scalar OsgEarthNet.uav[41] utilizationCountChargeState 49
scalar OsgEarthNet.uav[41] utilizationCountOverdrawnAfterMission 0
scalar OsgEarthNet.uav[41] utilizationCountIdleState 50
scalar OsgEarthNet.uav[41] utilizationFail 0
scalar OsgEarthNet.uav[41] simulationTime 259200
scalar OsgEarthNet.uav[42] utilizationSecMission 8712.6904616767
scalar OsgEarthNet.uav[42] utilizationSecMaintenance 7855.4979416425
scalar OsgEarthNet.uav[42] utilizationSecCharge 61130
scalar OsgEarthNet.uav[42] utilizationSecIdle 181501.81059668
scalar OsgEarthNet.uav[42] utilizationEnergyMission 39896.202079773
scalar OsgEarthNet.uav[42] utilizationEnergyMaintenance 36492.753425598
scalar OsgEarthNet.uav[42] utilizationEnergyCharge 76388.956054688
scalar OsgEarthNet.uav[42] utilizationEnergyOverdrawMission 0
scalar OsgEarthNet.uav[42] utilizationEnergyOverdrawMaintenance 0
scalar OsgEarthNet.uav[42] utilizationCountMissions 17
scalar OsgEarthNet.uav[42] utilizationCountManeuversMission 142
scalar OsgEarthNet.uav[42] utilizationCountManeuversMaintenance 34
scalar OsgEarthNet.uav[42] utilizationCountChargeState 17
scalar OsgEarthNet.uav[42] utilizationCountOverdrawnAfterMission 0
scalar OsgEarthNet.uav[42] utilizationCountIdleState 18
scalar OsgEarthNet.uav[42] utilizationFail 0
scalar OsgEarthNet.uav[42] simulationTime 259200
scalar OsgEarthNet.uav[43] utilizationSecMission 313.66140879233
scalar OsgEarthNet.uav[43] utilizationSecMaintenance 473.03391658586
scalar OsgEarthNet.uav[43] utilizationSecCharge 3080
scalar OsgEarthNet.uav[43] utilizationSecIdle 255333.30367462
scalar OsgEarthNet.uav[43] utilizationEnergyMission 1350.3146972656
scalar OsgEarthNet.uav[43] utilizationEnergyMaintenance 2205.1028671265
scalar OsgEarthNet.uav[43] utilizationEnergyCharge 3555.4145507812
scalar OsgEarthNet.uav[43] utilizationEnergyOverdrawMission 0
scalar OsgEarthNet.uav[43] utilizationEnergyOverdrawMaintenance 0
scalar OsgEarthNet.uav[43] utilizationCountMissions 1
scalar OsgEarthNet.uav[43] utilizationCountManeuversMission 5
scalar OsgEarthNet.uav[43] utilizationCountManeuversMaintenance 2
scalar OsgEarthNet.uav[43] utilizationCountChargeState 1
scalar OsgEarthNet.uav[43] utilizationCountOverdrawnAfterMission 0
scalar OsgEarthNet.uav[43] utilizationCountIdleState 2
scalar OsgEarthNet.uav[43] utilizationFail 0
scalar OsgEarthNet.uav[43] simulationTime 259200
scalar OsgEarthNet.uav[44] utilizationSecMission 28639.506126129
scalar OsgEarthNet.uav[44] utilizationSecMaintenance 17155.236534137
scalar OsgEarthNet.uav[44] utilizationSecCharge 169680
scalar OsgEarthNet.uav[44] utilizationSecIdle 43725.256339734
scalar OsgEarthNet.uav[44] utilizationEnergyMission 132118.03952026
scalar OsgEarthNet.uav[44] utilizationEnergyMaintenance 80167.344882965
scalar OsgEarthNet.uav[44] utilizationEnergyCharge 212220.60449219
scalar OsgEarthNet.uav[44] utilizationEnergyOverdrawMission 0
scalar OsgEarthNet.uav[44] utilizationEnergyOverdrawMaintenance 0
scalar OsgEarthNet.uav[44] utilizationCountMissions 47
scalar OsgEarthNet.uav[44] utilizationCountManeuversMission 460
scalar OsgEarthNet.uav[44] utilizationCountManeuversMaintenance 94
scalar OsgEarthNet.uav[44] utilizationCountChargeState 47
scalar OsgEarthNet.uav[44] utilizationCountOverdrawnAfterMission 0
scalar OsgEarthNet.uav[44] utilizationCountIdleState 48
scalar OsgEarthNet.uav[44] utilizationFail 0
scalar OsgEarthNet.uav[44] simulationTime 259200
scalar OsgEarthNet.uav[45] utilizationSecMission 750.20472747826
scalar OsgEarthNet.uav[45] utilizationSecMaintenance 255.5651663541
scalar OsgEarthNet.uav[45] utilizationSecCharge 3680
scalar OsgEarthNet.uav[45] utilizationSecIdle 254514.22910617
scalar OsgEarthNet.uav[45] utilizationEnergyMission 3483.5489959717
scalar OsgEarthNet.uav[45] utilizationEnergyMaintenance 1057.6380729675
scalar OsgEarthNet.uav[45] utilizationEnergyCharge 4541.1875
scalar OsgEarthNet.uav[45] utilizationEnergyOverdrawMission 0
scalar OsgEarthNet.uav[45] utilizationEnergyOverdrawMaintenance 0
scalar OsgEarthNet.uav[45] utilizationCountMissions 1
scalar OsgEarthNet.uav[45] utilizationCountManeuversMission 11
scalar OsgEarthNet.uav[45] utilizationCountManeuversMaintenance 2
scalar OsgEarthNet.uav[45] utilizationCountChargeState 1
scalar OsgEarthNet.uav[45] utilizationCountOverdrawnAfterMission 0
scalar OsgEarthNet.uav[45] utilizationCountIdleState 2
scalar OsgEarthNet.uav[45] utilizationFail 0
scalar OsgEarthNet.uav[45] simulationTime 259200
scalar OsgEarthNet.uav[46] utilizationSecMission 1308.4953220591
scalar OsgEarthNet.uav[46] utilizationSecMaintenance 672.39898491842
scalar OsgEarthNet.uav[46] utilizationSecCharge 7440
scalar OsgEarthNet.uav[46] utilizationSecIdle 249779.10469302
scalar OsgEarthNet.uav[46] utilizationEnergyMission 6292.701385498
scalar OsgEarthNet.uav[46] utilizationEnergyMaintenance 3165.4258460999
scalar OsgEarthNet.uav[46] utilizationEnergyCharge 9264.060546875
scalar OsgEarthNet.uav[46] utilizationEnergyOverdrawMission 0
scalar OsgEarthNet.uav[46] utilizationEnergyOverdrawMaintenance 0
scalar OsgEarthNet.uav[46] utilizationCountMissions 2
scalar OsgEarthNet.uav[46] utilizationCountManeuversMission 19
scalar OsgEarthNet.uav[46] utilizationCountManeuversMaintenance 4
scalar OsgEarthNet.uav[46] utilizationCountChargeState 2
scalar OsgEarthNet.uav[46] utilizationCountOverdrawnAfterMission 0
scalar OsgEarthNet.uav[46] utilizationCountIdleState 3
scalar OsgEarthNet.uav[46] utilizationFail 0
scalar OsgEarthNet.uav[46] simulationTime 259200
scalar OsgEarthNet.uav[47] utilizationSecMission 7357.3619286873
scalar OsgEarthNet.uav[47] utilizationSecMaintenance 6277.081277516
scalar OsgEarthNet.uav[47] utilizationSecCharge 48667.617875789
scalar OsgEarthNet.uav[47] utilizationSecIdle 196897.93791801
scalar OsgEarthNet.uav[47] utilizationEnergyMission 34440.825187683
scalar OsgEarthNet.uav[47] utilizationEnergyMaintenance 28883.37556839
scalar OsgEarthNet.uav[47] utilizationEnergyCharge 61851.612304688
scalar OsgEarthNet.uav[47] utilizationEnergyOverdrawMission 0
scalar OsgEarthNet.uav[47] utilizationEnergyOverdrawMaintenance 0
scalar OsgEarthNet.uav[47] utilizationCountMissions 14
scalar OsgEarthNet.uav[47] utilizationCountManeuversMission 121
scalar OsgEarthNet.uav[47] utilizationCountManeuversMaintenance 28
scalar OsgEarthNet.uav[47] utilizationCountChargeState 14
scalar OsgEarthNet.uav[47] utilizationCountOverdrawnAfterMission 0
scalar OsgEarthNet.uav[47] utilizationCountIdleState 14
scalar OsgEarthNet.uav[47] utilizationFail 0
scalar OsgEarthNet.uav[47] simulationTime 259200
scalar OsgEarthNet.uav[48] utilizationSecMission 1517.0320751159
scalar OsgEarthNet.uav[48] utilizationSecMaintenance 562.60624352635
scalar OsgEarthNet.uav[48] utilizationSecCharge 7650
scalar OsgEarthNet.uav[48] utilizationSecIdle 249470.36068136
scalar OsgEarthNet.uav[48] utilizationEnergyMission 7120.5871047974
scalar OsgEarthNet.uav[48] utilizationEnergyMaintenance 2568.4704627991
scalar OsgEarthNet.uav[48] utilizationEnergyCharge 9689.056640625
scalar OsgEarthNet.uav[48] utilizationEnergyOverdrawMission 0
scalar OsgEarthNet.uav[48] utilizationEnergyOverdrawMaintenance 0
scalar OsgEarthNet.uav[48] utilizationCountMissions 2
scalar OsgEarthNet.uav[48] utilizationCountManeuversMission 25
scalar OsgEarthNet.uav[48] utilizationCountManeuversMaintenance 4
scalar OsgEarthNet.uav[48] utilizationCountChargeState 2
scalar OsgEarthNet.uav[48] utilizationCountOverdrawnAfterMission 0
scalar OsgEarthNet.uav[48] utilizationCountIdleState 3
scalar OsgEarthNet.uav[48] utilizationFail 0
scalar OsgEarthNet.uav[48] simulationTime 259200
scalar OsgEarthNet.uav[49] utilizationSecMission 1417.8123394229
scalar OsgEarthNet.uav[49] utilizationSecMaintenance 521.25882010507
scalar OsgEarthNet.uav[49] utilizationSecCharge 7350
scalar OsgEarthNet.uav[49] utilizationSecIdle 249910.92784047
scalar OsgEarthNet.uav[49] utilizationEnergyMission 6505.2367095947
scalar OsgEarthNet.uav[49] utilizationEnergyMaintenance 2369.940158844
scalar OsgEarthNet.uav[49] utilizationEnergyCharge 9233.21484375
scalar OsgEarthNet.uav[49] utilizationEnergyOverdrawMission 0
scalar OsgEarthNet.uav[49] utilizationEnergyOverdrawMaintenance 0
scalar OsgEarthNet.uav[49] utilizationCountMissions 2
scalar OsgEarthNet.uav[49] utilizationCountManeuversMission 22
scalar OsgEarthNet.uav[49] utilizationCountManeuversMaintenance 4
scalar OsgEarthNet.uav[49] utilizationCountChargeState 2
scalar OsgEarthNet.uav[49] utilizationCountOverdrawnAfterMission 0
scalar OsgEarthNet.uav[49] utilizationCountIdleState 3
scalar OsgEarthNet.uav[49] utilizationFail 0
scalar OsgEarthNet.uav[49] simulationTime 259200
scalar OsgEarthNet.uav[50] utilizationSecMission 3256.3849070563
scalar OsgEarthNet.uav[50] utilizationSecMaintenance 2680.621147085
scalar OsgEarthNet.uav[50] utilizationSecCharge 21910
scalar OsgEarthNet.uav[50] utilizationSecIdle 231352.99294586
scalar OsgEarthNet.uav[50] utilizationEnergyMission 15218.182289124
scalar OsgEarthNet.uav[50] utilizationEnergyMaintenance 12209.211769104
scalar OsgEarthNet.uav[50] utilizationEnergyCharge 27520.000488281
scalar OsgEarthNet.uav[50] utilizationEnergyOverdrawMission 0
scalar OsgEarthNet.uav[50] utilizationEnergyOverdrawMaintenance 0
scalar OsgEarthNet.uav[50] utilizationCountMissions 6
scalar OsgEarthNet.uav[50] utilizationCountManeuversMission 52
scalar OsgEarthNet.uav[50] utilizationCountManeuversMaintenance 12
scalar OsgEarthNet.uav[50] utilizationCountChargeState 6
scalar OsgEarthNet.uav[50] utilizationCountOverdrawnAfterMission 0
scalar OsgEarthNet.uav[50] utilizationCountIdleState 7
scalar OsgEarthNet.uav[50] utilizationFail 0
scalar OsgEarthNet.uav[50] simulationTime 259200
scalar OsgEarthNet.uav[51] utilizationSecMission 22072.295227776
scalar OsgEarthNet.uav[51] utilizationSecMaintenance 17267.443021463
scalar OsgEarthNet.uav[51] utilizationSecCharge 142823.74049896
scalar OsgEarthNet.uav[51] utilizationSecIdle 77036.520251797
scalar OsgEarthNet.uav[51] utilizationEnergyMission 101527.03710175
scalar OsgEarthNet.uav[51] utilizationEnergyMaintenance 80397.752178192
scalar OsgEarthNet.uav[51] utilizationEnergyCharge 179879.00585938
scalar OsgEarthNet.uav[51] utilizationEnergyOverdrawMission 0
scalar OsgEarthNet.uav[51] utilizationEnergyOverdrawMaintenance 0
scalar OsgEarthNet.uav[51] utilizationCountMissions 40
scalar OsgEarthNet.uav[51] utilizationCountManeuversMission 364
scalar OsgEarthNet.uav[51] utilizationCountManeuversMaintenance 80
scalar OsgEarthNet.uav[51] utilizationCountChargeState 40
scalar OsgEarthNet.uav[51] utilizationCountOverdrawnAfterMission 0
scalar OsgEarthNet.uav[51] utilizationCountIdleState 38
scalar OsgEarthNet.uav[51] utilizationFail 0
scalar OsgEarthNet.uav[51] simulationTime 259200
scalar OsgEarthNet.uav[52] utilizationSecMission 14596.412718451
scalar OsgEarthNet.uav[52] utilizationSecMaintenance 6555.3848004687
scalar OsgEarthNet.uav[52] utilizationSecCharge 76760
scalar OsgEarthNet.uav[52] utilizationSecIdle 161288.20148108
scalar OsgEarthNet.uav[52] utilizationEnergyMission 66041.230194092
scalar OsgEarthNet.uav[52] utilizationEnergyMaintenance 30466.914775848
scalar OsgEarthNet.uav[52] utilizationEnergyCharge 96551.869628906
scalar OsgEarthNet.uav[52] utilizationEnergyOverdrawMission 0
scalar OsgEarthNet.uav[52] utilizationEnergyOverdrawMaintenance 0
scalar OsgEarthNet.uav[52] utilizationCountMissions 21
scalar OsgEarthNet.uav[52] utilizationCountManeuversMission 236
scalar OsgEarthNet.uav[52] utilizationCountManeuversMaintenance 42
scalar OsgEarthNet.uav[52] utilizationCountChargeState 21
scalar OsgEarthNet.uav[52] utilizationCountOverdrawnAfterMission 0
scalar OsgEarthNet.uav[52] utilizationCountIdleState 22
scalar OsgEarthNet.uav[52] utilizationFail 0
scalar OsgEarthNet.uav[52] simulationTime 259200
scalar OsgEarthNet.uav[53] utilizationSecMission 21160.247273466
scalar OsgEarthNet.uav[53] utilizationSecMaintenance 15420.319161032
scalar OsgEarthNet.uav[53] utilizationSecCharge 134520
scalar OsgEarthNet.uav[53] utilizationSecIdle 88099.432565502
scalar OsgEarthNet.uav[53] utilizationEnergyMission 98089.316112518
scalar OsgEarthNet.uav[53] utilizationEnergyMaintenance 70916.441524506
scalar OsgEarthNet.uav[53] utilizationEnergyCharge 168986.54956055
scalar OsgEarthNet.uav[53] utilizationEnergyOverdrawMission 0
scalar OsgEarthNet.uav[53] utilizationEnergyOverdrawMaintenance 0
scalar OsgEarthNet.uav[53] utilizationCountMissions 37
scalar OsgEarthNet.uav[53] utilizationCountManeuversMission 338
scalar OsgEarthNet.uav[53] utilizationCountManeuversMaintenance 74
scalar OsgEarthNet.uav[53] utilizationCountChargeState 37
scalar OsgEarthNet.uav[53] utilizationCountOverdrawnAfterMission 0
scalar OsgEarthNet.uav[53] utilizationCountIdleState 36
scalar OsgEarthNet.uav[53] utilizationFail 0
scalar OsgEarthNet.uav[53] simulationTime 259200
scalar OsgEarthNet.uav[54] utilizationSecMission 22813.810668127
scalar OsgEarthNet.uav[54] utilizationSecMaintenance 17521.186686481
scalar OsgEarthNet.uav[54] utilizationSecCharge 147809.51279092
scalar OsgEarthNet.uav[54] utilizationSecIdle 71055.488854474
scalar OsgEarthNet.uav[54] utilizationEnergyMission 104599.93600464
scalar OsgEarthNet.uav[54] utilizationEnergyMaintenance 81364.02854538
scalar OsgEarthNet.uav[54] utilizationEnergyCharge 185887.17871094
scalar OsgEarthNet.uav[54] utilizationEnergyOverdrawMission 0
scalar OsgEarthNet.uav[54] utilizationEnergyOverdrawMaintenance 0
scalar OsgEarthNet.uav[54] utilizationCountMissions 41
scalar OsgEarthNet.uav[54] utilizationCountManeuversMission 378
scalar OsgEarthNet.uav[54] utilizationCountManeuversMaintenance 82
scalar OsgEarthNet.uav[54] utilizationCountChargeState 41
scalar OsgEarthNet.uav[54] utilizationCountOverdrawnAfterMission 0
scalar OsgEarthNet.uav[54] utilizationCountIdleState 40
scalar OsgEarthNet.uav[54] utilizationFail 0
scalar OsgEarthNet.uav[54] simulationTime 259200
scalar OsgEarthNet.uav[55] utilizationSecMission 24969.300193004
scalar OsgEarthNet.uav[55] utilizationSecMaintenance 17919.245848279
scalar OsgEarthNet.uav[55] utilizationSecCharge 157700
scalar OsgEarthNet.uav[55] utilizationSecIdle 58611.452958717
scalar OsgEarthNet.uav[55] utilizationEnergyMission 116521.84898202
scalar OsgEarthNet.uav[55] utilizationEnergyMaintenance 83640.28345871
scalar OsgEarthNet.uav[55] utilizationEnergyCharge 198185.39990234
scalar OsgEarthNet.uav[55] utilizationEnergyOverdrawMission 0
scalar OsgEarthNet.uav[55] utilizationEnergyOverdrawMaintenance 0
scalar OsgEarthNet.uav[55] utilizationCountMissions 43
scalar OsgEarthNet.uav[55] utilizationCountManeuversMission 412
scalar OsgEarthNet.uav[55] utilizationCountManeuversMaintenance 87
scalar OsgEarthNet.uav[55] utilizationCountChargeState 43
scalar OsgEarthNet.uav[55] utilizationCountOverdrawnAfterMission 0
scalar OsgEarthNet.uav[55] utilizationCountIdleState 44
scalar OsgEarthNet.uav[55] utilizationFail 0
scalar OsgEarthNet.uav[55] simulationTime 259200
scalar OsgEarthNet.uav[56] utilizationSecMission 25322.110121916
scalar OsgEarthNet.uav[56] utilizationSecMaintenance 17903.698739203
scalar OsgEarthNet.uav[56] utilizationSecCharge 159760.48893278
scalar OsgEarthNet.uav[56] utilizationSecIdle 56213.701206097
scalar OsgEarthNet.uav[56] utilizationEnergyMission 118240.27301025
scalar OsgEarthNet.uav[56] utilizationEnergyMaintenance 82741.308059692
scalar OsgEarthNet.uav[56] utilizationEnergyCharge 200813.80126953
scalar OsgEarthNet.uav[56] utilizationEnergyOverdrawMission 0
scalar OsgEarthNet.uav[56] utilizationEnergyOverdrawMaintenance 0
scalar OsgEarthNet.uav[56] utilizationCountMissions 44
scalar OsgEarthNet.uav[56] utilizationCountManeuversMission 417
scalar OsgEarthNet.uav[56] utilizationCountManeuversMaintenance 88
scalar OsgEarthNet.uav[56] utilizationCountChargeState 44
scalar OsgEarthNet.uav[56] utilizationCountOverdrawnAfterMission 0
scalar OsgEarthNet.uav[56] utilizationCountIdleState 43
scalar OsgEarthNet.uav[56] utilizationFail 0
scalar OsgEarthNet.uav[56] simulationTime 259200
scalar OsgEarthNet.uav[57] utilizationSecMission 18115.735861097
scalar OsgEarthNet.uav[57] utilizationSecMaintenance 15424.247390385
scalar OsgEarthNet.uav[57] utilizationSecCharge 123620
scalar OsgEarthNet.uav[57] utilizationSecIdle 102040.01574852
scalar OsgEarthNet.uav[57] utilizationEnergyMission 83924.578407288
scalar OsgEarthNet.uav[57] utilizationEnergyMaintenance 71589.762001038
scalar OsgEarthNet.uav[57] utilizationEnergyCharge 154962.70556641
scalar OsgEarthNet.uav[57] utilizationEnergyOverdrawMission 0
scalar OsgEarthNet.uav[57] utilizationEnergyOverdrawMaintenance 0
scalar OsgEarthNet.uav[57] utilizationCountMissions 34
scalar OsgEarthNet.uav[57] utilizationCountManeuversMission 294
scalar OsgEarthNet.uav[57] utilizationCountManeuversMaintenance 68
scalar OsgEarthNet.uav[57] utilizationCountChargeState 34
scalar OsgEarthNet.uav[57] utilizationCountOverdrawnAfterMission 0
scalar OsgEarthNet.uav[57] utilizationCountIdleState 35
scalar OsgEarthNet.uav[57] utilizationFail 0
scalar OsgEarthNet.uav[57] simulationTime 259200
scalar OsgEarthNet.uav[58] utilizationSecMission 23220.91745149
scalar OsgEarthNet.uav[58] utilizationSecMaintenance 16711.631284479
scalar OsgEarthNet.uav[58] utilizationSecCharge 146310
scalar OsgEarthNet.uav[58] utilizationSecIdle 72957.450264031
scalar OsgEarthNet.uav[58] utilizationEnergyMission 107627.8115921
scalar OsgEarthNet.uav[58] utilizationEnergyMaintenance 78670.483074872
scalar OsgEarthNet.uav[58] utilizationEnergyCharge 184442.61743164
scalar OsgEarthNet.uav[58] utilizationEnergyOverdrawMission 0
scalar OsgEarthNet.uav[58] utilizationEnergyOverdrawMaintenance 0
scalar OsgEarthNet.uav[58] utilizationCountMissions 40
scalar OsgEarthNet.uav[58] utilizationCountManeuversMission 380
scalar OsgEarthNet.uav[58] utilizationCountManeuversMaintenance 81
scalar OsgEarthNet.uav[58] utilizationCountChargeState 40
scalar OsgEarthNet.uav[58] utilizationCountOverdrawnAfterMission 0
scalar OsgEarthNet.uav[58] utilizationCountIdleState 40
scalar OsgEarthNet.uav[58] utilizationFail 0
scalar OsgEarthNet.uav[58] simulationTime 259200
scalar OsgEarthNet.uav[59] utilizationSecMission 25138.892799144
scalar OsgEarthNet.uav[59] utilizationSecMaintenance 16239.962510941
scalar OsgEarthNet.uav[59] utilizationSecCharge 151562.34437426
scalar OsgEarthNet.uav[59] utilizationSecIdle 66258.799315659
scalar OsgEarthNet.uav[59] utilizationEnergyMission 117155.10772705
scalar OsgEarthNet.uav[59] utilizationEnergyMaintenance 77012.602893829
scalar OsgEarthNet.uav[59] utilizationEnergyCharge 191878.79467773
scalar OsgEarthNet.uav[59] utilizationEnergyOverdrawMission 0
scalar OsgEarthNet.uav[59] utilizationEnergyOverdrawMaintenance 0
scalar OsgEarthNet.uav[59] utilizationCountMissions 42
scalar OsgEarthNet.uav[59] utilizationCountManeuversMission 400
scalar OsgEarthNet.uav[59] utilizationCountManeuversMaintenance 84
scalar OsgEarthNet.uav[59] utilizationCountChargeState 42
scalar OsgEarthNet.uav[59] utilizationCountOverdrawnAfterMission 0
scalar OsgEarthNet.uav[59] utilizationCountIdleState 40
scalar OsgEarthNet.uav[59] utilizationFail 0
scalar OsgEarthNet.uav[59] simulationTime 259200
scalar OsgEarthNet.uav[60] utilizationSecMission 25040.396897966
scalar OsgEarthNet.uav[60] utilizationSecMaintenance 19334.742264139
scalar OsgEarthNet.uav[60] utilizationSecCharge 160901.6854503
scalar OsgEarthNet.uav[60] utilizationSecIdle 53923.174387593
scalar OsgEarthNet.uav[60] utilizationEnergyMission 115353.31716156
scalar OsgEarthNet.uav[60] utilizationEnergyMaintenance 89128.747200012
scalar OsgEarthNet.uav[60] utilizationEnergyCharge 202968.41601562
scalar OsgEarthNet.uav[60] utilizationEnergyOverdrawMission 0
scalar OsgEarthNet.uav[60] utilizationEnergyOverdrawMaintenance 0
scalar OsgEarthNet.uav[60] utilizationCountMissions 45
scalar OsgEarthNet.uav[60] utilizationCountManeuversMission 407
scalar OsgEarthNet.uav[60] utilizationCountManeuversMaintenance 90
scalar OsgEarthNet.uav[60] utilizationCountChargeState 45
scalar OsgEarthNet.uav[60] utilizationCountOverdrawnAfterMission 0
scalar OsgEarthNet.uav[60] utilizationCountIdleState 40
scalar OsgEarthNet.uav[60] utilizationFail 0
scalar OsgEarthNet.uav[60] simulationTime 259200
scalar OsgEarthNet.uav[61] utilizationSecMission 26392.635827491
scalar OsgEarthNet.uav[61] utilizationSecMaintenance 19269.21012747
scalar OsgEarthNet.uav[61] utilizationSecCharge 166581.71999453
scalar OsgEarthNet.uav[61] utilizationSecIdle 46956.433050513
scalar OsgEarthNet.uav[61] utilizationEnergyMission 121296.42011261
scalar OsgEarthNet.uav[61] utilizationEnergyMaintenance 89281.065338135
scalar OsgEarthNet.uav[61] utilizationEnergyCharge 210200.17578125
scalar OsgEarthNet.uav[61] utilizationEnergyOverdrawMission 0
scalar OsgEarthNet.uav[61] utilizationEnergyOverdrawMaintenance 0
scalar OsgEarthNet.uav[61] utilizationCountMissions 46
scalar OsgEarthNet.uav[61] utilizationCountManeuversMission 431
scalar OsgEarthNet.uav[61] utilizationCountManeuversMaintenance 92
scalar OsgEarthNet.uav[61] utilizationCountChargeState 46
scalar OsgEarthNet.uav[61] utilizationCountOverdrawnAfterMission 0
scalar OsgEarthNet.uav[61] utilizationCountIdleState 41
scalar OsgEarthNet.uav[61] utilizationFail 0
scalar OsgEarthNet.uav[61] simulationTime 259200
scalar OsgEarthNet.uav[62] utilizationSecMission 26654.69503964
scalar OsgEarthNet.uav[62] utilizationSecMaintenance 22484.61437907
scalar OsgEarthNet.uav[62] utilizationSecCharge 180158.68958129
scalar OsgEarthNet.uav[62] utilizationSecIdle 29902
scalar OsgEarthNet.uav[62] utilizationEnergyMission 123705.25920543
scalar OsgEarthNet.uav[62] utilizationEnergyMaintenance 105139.96249008
scalar OsgEarthNet.uav[62] utilizationEnergyCharge 227868.34643555
scalar OsgEarthNet.uav[62] utilizationEnergyOverdrawMission 0
scalar OsgEarthNet.uav[62] utilizationEnergyOverdrawMaintenance 0
scalar OsgEarthNet.uav[62] utilizationCountMissions 50
scalar OsgEarthNet.uav[62] utilizationCountManeuversMission 439
scalar OsgEarthNet.uav[62] utilizationCountManeuversMaintenance 99
scalar OsgEarthNet.uav[62] utilizationCountChargeState 50
scalar OsgEarthNet.uav[62] utilizationCountOverdrawnAfterMission 0
scalar OsgEarthNet.uav[62] utilizationCountIdleState 41
scalar OsgEarthNet.uav[62] utilizationFail 0
scalar OsgEarthNet.uav[62] simulationTime 259200
scalar OsgEarthNet.uav[63] utilizationSecMission 30332.518391226
scalar OsgEarthNet.uav[63] utilizationSecMaintenance 17194.087069738
scalar OsgEarthNet.uav[63] utilizationSecCharge 173860.3721553
scalar OsgEarthNet.uav[63] utilizationSecIdle 37813.021383737
scalar OsgEarthNet.uav[63] utilizationEnergyMission 140612.0558548
scalar OsgEarthNet.uav[63] utilizationEnergyMaintenance 80017.289875031
scalar OsgEarthNet.uav[63] utilizationEnergyCharge 220421.80224609
scalar OsgEarthNet.uav[63] utilizationEnergyOverdrawMission 0
scalar OsgEarthNet.uav[63] utilizationEnergyOverdrawMaintenance 0
scalar OsgEarthNet.uav[63] utilizationCountMissions 48
scalar OsgEarthNet.uav[63] utilizationCountManeuversMission 498
scalar OsgEarthNet.uav[63] utilizationCountManeuversMaintenance 96
scalar OsgEarthNet.uav[63] utilizationCountChargeState 48
scalar OsgEarthNet.uav[63] utilizationCountOverdrawnAfterMission 0
scalar OsgEarthNet.uav[63] utilizationCountIdleState 42
scalar OsgEarthNet.uav[63] utilizationFail 0
scalar OsgEarthNet.uav[63] simulationTime 259200
scalar OsgEarthNet.uav[64] utilizationSecMission 26910.365803247
scalar OsgEarthNet.uav[64] utilizationSecMaintenance 22738.519338351
scalar OsgEarthNet.uav[64] utilizationSecCharge 180470
scalar OsgEarthNet.uav[64] utilizationSecIdle 29081.113858401
scalar OsgEarthNet.uav[64] utilizationEnergyMission 125149.28079775
scalar OsgEarthNet.uav[64] utilizationEnergyMaintenance 105514.4858017
scalar OsgEarthNet.uav[64] utilizationEnergyCharge 227646.38623047
scalar OsgEarthNet.uav[64] utilizationEnergyOverdrawMission 0
scalar OsgEarthNet.uav[64] utilizationEnergyOverdrawMaintenance 0
scalar OsgEarthNet.uav[64] utilizationCountMissions 50
scalar OsgEarthNet.uav[64] utilizationCountManeuversMission 445
scalar OsgEarthNet.uav[64] utilizationCountManeuversMaintenance 101
scalar OsgEarthNet.uav[64] utilizationCountChargeState 50
scalar OsgEarthNet.uav[64] utilizationCountOverdrawnAfterMission 0
scalar OsgEarthNet.uav[64] utilizationCountIdleState 41
scalar OsgEarthNet.uav[64] utilizationFail 0
scalar OsgEarthNet.uav[64] simulationTime 259200
scalar OsgEarthNet.uav[65] utilizationSecMission 27360.563905246
scalar OsgEarthNet.uav[65] utilizationSecMaintenance 22727.389558831
scalar OsgEarthNet.uav[65] utilizationSecCharge 183695.34017352
scalar OsgEarthNet.uav[65] utilizationSecIdle 25416.705362404
scalar OsgEarthNet.uav[65] utilizationEnergyMission 126538.22789764
scalar OsgEarthNet.uav[65] utilizationEnergyMaintenance 105028.27744293
scalar OsgEarthNet.uav[65] utilizationEnergyCharge 231523.04589844
scalar OsgEarthNet.uav[65] utilizationEnergyOverdrawMission 0
scalar OsgEarthNet.uav[65] utilizationEnergyOverdrawMaintenance 0
scalar OsgEarthNet.uav[65] utilizationCountMissions 51
scalar OsgEarthNet.uav[65] utilizationCountManeuversMission 446
scalar OsgEarthNet.uav[65] utilizationCountManeuversMaintenance 102
scalar OsgEarthNet.uav[65] utilizationCountChargeState 51
scalar OsgEarthNet.uav[65] utilizationCountOverdrawnAfterMission 0
scalar OsgEarthNet.uav[65] utilizationCountIdleState 41
scalar OsgEarthNet.uav[65] utilizationFail 0
scalar OsgEarthNet.uav[65] simulationTime 259200
scalar OsgEarthNet.uav[66] utilizationSecMission 28600.931314363
scalar OsgEarthNet.uav[66] utilizationSecMaintenance 23022.550405334
scalar OsgEarthNet.uav[66] utilizationSecCharge 186710
scalar OsgEarthNet.uav[66] utilizationSecIdle 20866.517280303
scalar OsgEarthNet.uav[66] utilizationEnergyMission 133267.6396997
scalar OsgEarthNet.uav[66] utilizationEnergyMaintenance 105446.26332092
scalar OsgEarthNet.uav[66] utilizationEnergyCharge 236031.1628418
scalar OsgEarthNet.uav[66] utilizationEnergyOverdrawMission 0
scalar OsgEarthNet.uav[66] utilizationEnergyOverdrawMaintenance 0
scalar OsgEarthNet.uav[66] utilizationCountMissions 52
scalar OsgEarthNet.uav[66] utilizationCountManeuversMission 463
scalar OsgEarthNet.uav[66] utilizationCountManeuversMaintenance 105
scalar OsgEarthNet.uav[66] utilizationCountChargeState 52
scalar OsgEarthNet.uav[66] utilizationCountOverdrawnAfterMission 0
scalar OsgEarthNet.uav[66] utilizationCountIdleState 42
scalar OsgEarthNet.uav[66] utilizationFail 0
scalar OsgEarthNet.uav[66] simulationTime 259200
scalar OsgEarthNet.uav[67] utilizationSecMission 28588.593248243
scalar OsgEarthNet.uav[67] utilizationSecMaintenance 22211.548024935
scalar OsgEarthNet.uav[67] utilizationSecCharge 185050
scalar OsgEarthNet.uav[67] utilizationSecIdle 23349.857726822
scalar OsgEarthNet.uav[67] utilizationEnergyMission 130755.78955078
scalar OsgEarthNet.uav[67] utilizationEnergyMaintenance 103428.80100169
scalar OsgEarthNet.uav[67] utilizationEnergyCharge 234552.63671875
scalar OsgEarthNet.uav[67] utilizationEnergyOverdrawMission 0
scalar OsgEarthNet.uav[67] utilizationEnergyOverdrawMaintenance 0
scalar OsgEarthNet.uav[67] utilizationCountMissions 51
scalar OsgEarthNet.uav[67] utilizationCountManeuversMission 462
scalar OsgEarthNet.uav[67] utilizationCountManeuversMaintenance 103
scalar OsgEarthNet.uav[67] utilizationCountChargeState 51
scalar OsgEarthNet.uav[67] utilizationCountOverdrawnAfterMission 0
scalar OsgEarthNet.uav[67] utilizationCountIdleState 40
scalar OsgEarthNet.uav[67] utilizationFail 0
scalar OsgEarthNet.uav[67] simulationTime 259200
scalar OsgEarthNet.uav[68] utilizationSecMission 29300.014775146
scalar OsgEarthNet.uav[68] utilizationSecMaintenance 22988.174739356
scalar OsgEarthNet.uav[68] utilizationSecCharge 187751.10142827
scalar OsgEarthNet.uav[68] utilizationSecIdle 19160.708057228
scalar OsgEarthNet.uav[68] utilizationEnergyMission 136256.71097946
scalar OsgEarthNet.uav[68] utilizationEnergyMaintenance 106061.42455292
scalar OsgEarthNet.uav[68] utilizationEnergyCharge 237373.13772583
scalar OsgEarthNet.uav[68] utilizationEnergyOverdrawMission 0
scalar OsgEarthNet.uav[68] utilizationEnergyOverdrawMaintenance 0
scalar OsgEarthNet.uav[68] utilizationCountMissions 53
scalar OsgEarthNet.uav[68] utilizationCountManeuversMission 475
scalar OsgEarthNet.uav[68] utilizationCountManeuversMaintenance 106
scalar OsgEarthNet.uav[68] utilizationCountChargeState 53
scalar OsgEarthNet.uav[68] utilizationCountOverdrawnAfterMission 0
scalar OsgEarthNet.uav[68] utilizationCountIdleState 37
scalar OsgEarthNet.uav[68] utilizationFail 0
scalar OsgEarthNet.uav[68] simulationTime 259200
scalar OsgEarthNet.uav[69] utilizationSecMission 29739.041272761
scalar OsgEarthNet.uav[69] utilizationSecMaintenance 22867.897659858
scalar OsgEarthNet.uav[69] utilizationSecCharge 188410.45112278
scalar OsgEarthNet.uav[69] utilizationSecIdle 18182.608944599
scalar OsgEarthNet.uav[69] utilizationEnergyMission 137552.70462799
scalar OsgEarthNet.uav[69] utilizationEnergyMaintenance 105696.98330688
scalar OsgEarthNet.uav[69] utilizationEnergyCharge 239579.45996094
scalar OsgEarthNet.uav[69] utilizationEnergyOverdrawMission 0
scalar OsgEarthNet.uav[69] utilizationEnergyOverdrawMaintenance 0
scalar OsgEarthNet.uav[69] utilizationCountMissions 53
scalar OsgEarthNet.uav[69] utilizationCountManeuversMission 488
scalar OsgEarthNet.uav[69] utilizationCountManeuversMaintenance 106
scalar OsgEarthNet.uav[69] utilizationCountChargeState 53
scalar OsgEarthNet.uav[69] utilizationCountOverdrawnAfterMission 0
scalar OsgEarthNet.uav[69] utilizationCountIdleState 40
scalar OsgEarthNet.uav[69] utilizationFail 0
scalar OsgEarthNet.uav[69] simulationTime 259200
scalar OsgEarthNet.cs[0] usedPower 2099376.9167347
scalar OsgEarthNet.cs[0] chargedPower 2099376.9167347
scalar OsgEarthNet.cs[0] chargedMobileNodes 440
scalar OsgEarthNet.cs[0] reservations 467
scalar OsgEarthNet.cs[1] usedPower 3022525.1201033
scalar OsgEarthNet.cs[1] chargedPower 3022525.1201033
scalar OsgEarthNet.cs[1] chargedMobileNodes 612
scalar OsgEarthNet.cs[1] reservations 655
scalar OsgEarthNet.cs[2] usedPower 4848947.1626006
scalar OsgEarthNet.cs[2] chargedPower 4848947.1626006
scalar OsgEarthNet.cs[2] chargedMobileNodes 1004
scalar OsgEarthNet.cs[2] reservations 1069

