version 2
run Szenario_Hotel_Gabelbach-87-20180710-04:00:18-32296
attr configname Szenario_Hotel_Gabelbach
attr datetime 20180710-04:00:18
attr experiment Szenario_Hotel_Gabelbach
attr inifile omnetpp.ini
attr iterationvars "$numUAVs=70, $replM=0"
attr iterationvarsf numUAVs=70,replM=0-
attr measurement "$numUAVs=70, $replM=0"
attr network OsgEarthNet
attr processid 32296
attr repetition 7
attr replication #7
attr resultdir results
attr runnumber 87
attr seedset 87
itervar numUAVs 70
itervar replM 0
param *.osgEarthScene.scene "\"Szenario_Hotel_Gabelbach.earth\""
param *.playgroundLatitude 50.6830269
param *.playgroundLongitude 10.8538055
param *.playgroundWidth 3500m
param *.playgroundHeight 3500m
param *.numCSs 3
param *.cs[0].posX 3537m
param *.cs[0].posY 965m
param *.cs[0].posZ 538m
param *.cs[1].posX 312m
param *.cs[1].posY 1262m
param *.cs[1].posZ 539m
param *.cs[2].posX 2185m
param *.cs[2].posY 3026m
param *.cs[2].posZ 777m
param *.cs[3].posX 10m
param *.cs[3].posY 2200m
param *.cs[3].posZ 560m
param *.cs[4].posX 750m
param *.cs[4].posY 200m
param *.cs[4].posZ 540m
param *.cs[5].posX 2450m
param *.cs[5].posY 180m
param *.cs[5].posZ 524m
param *.cs[6].posX 3140m
param *.cs[6].posY 1790m
param *.cs[6].posZ 606m
param *.numUAVs 70
param *.uav[*].replacementMethod 0
param *.*.timeStep 10s
param *.uav[*].commandPreviewCommandCount 20
param *.missionControl.missionFiles "\"missions\\\\Szenario_WB_Hotel_Gabelbach_Mission_Hotel.waypoints,missions\\\\Szenario_WB_Hotel_Gabelbach_Mission_Kickelhahn.waypoints,missions\\\\Szenario_WB_Hotel_Gabelbach_Mission_Ilmenau_Sportplatz.waypoints,missions\\\\Szenario_WB_Hotel_Gabelbach_Mission_Manebach_Mitte.waypoints,missions\\\\Szenario_WB_Hotel_Gabelbach_Mission_Manebach_Sued.waypoints\""
param *.missionControl.missionFiles "\"missions\\\\Szenario_WB_Hotel_Gabelbach_Mission_Hotel.waypoints,missions\\\\Szenario_WB_Hotel_Gabelbach_Mission_Kickelhahn.waypoints,missions\\\\Szenario_WB_Hotel_Gabelbach_Mission_Ilmenau_Sportplatz.waypoints,missions\\\\Szenario_WB_Hotel_Gabelbach_Mission_Manebach_Mitte.waypoints,missions\\\\Szenario_WB_Hotel_Gabelbach_Mission_Manebach_Sued.waypoints,missions\\\\Szenario_WB_Hotel_Gabelbach_Hover_HoheSchlaufe.waypoints,missions\\\\Szenario_WB_Hotel_Gabelbach_Hover_Kickelhahn.waypoints,missions\\\\Szenario_WB_Hotel_Gabelbach_Hover_Gabelbachskopf.waypoints,missions\\\\Szenario_WB_Hotel_Gabelbach_Hover_Dachskopf.waypoints\""
param *.uav[0].startX 3537m
param *.uav[0].startY 965m
param *.uav[0].startZ 539m
param *.uav[1].startX 312m
param *.uav[1].startY 1262m
param *.uav[1].startZ 540m
param *.uav[2].startX 2185m
param *.uav[2].startY 3026m
param *.uav[2].startZ 778m
param *.uav[3].startX 3537m
param *.uav[3].startY 965m
param *.uav[3].startZ 539m
param *.uav[4].startX 312m
param *.uav[4].startY 1262m
param *.uav[4].startZ 540m
param *.uav[5].startX 2185m
param *.uav[5].startY 3026m
param *.uav[5].startZ 778m
param *.uav[6].startX 3537m
param *.uav[6].startY 965m
param *.uav[6].startZ 539m
param *.uav[7].startX 312m
param *.uav[7].startY 1262m
param *.uav[7].startZ 540m
param *.uav[8].startX 2185m
param *.uav[8].startY 3026m
param *.uav[8].startZ 778m
param *.uav[9].startX 3537m
param *.uav[9].startY 965m
param *.uav[9].startZ 539m
param *.uav[10].startX 3537m
param *.uav[10].startY 965m
param *.uav[10].startZ 539m
param *.uav[11].startX 312m
param *.uav[11].startY 1262m
param *.uav[11].startZ 540m
param *.uav[12].startX 2185m
param *.uav[12].startY 3026m
param *.uav[12].startZ 778m
param *.uav[13].startX 3537m
param *.uav[13].startY 965m
param *.uav[13].startZ 539m
param *.uav[14].startX 312m
param *.uav[14].startY 1262m
param *.uav[14].startZ 540m
param *.uav[15].startX 2185m
param *.uav[15].startY 3026m
param *.uav[15].startZ 778m
param *.uav[16].startX 3537m
param *.uav[16].startY 965m
param *.uav[16].startZ 539m
param *.uav[17].startX 312m
param *.uav[17].startY 1262m
param *.uav[17].startZ 540m
param *.uav[18].startX 2185m
param *.uav[18].startY 3026m
param *.uav[18].startZ 778m
param *.uav[19].startX 3537m
param *.uav[19].startY 965m
param *.uav[19].startZ 539m
param *.uav[20].startX 3537m
param *.uav[20].startY 965m
param *.uav[20].startZ 539m
param *.uav[21].startX 312m
param *.uav[21].startY 1262m
param *.uav[21].startZ 540m
param *.uav[22].startX 2185m
param *.uav[22].startY 3026m
param *.uav[22].startZ 778m
param *.uav[23].startX 3537m
param *.uav[23].startY 965m
param *.uav[23].startZ 539m
param *.uav[24].startX 312m
param *.uav[24].startY 1262m
param *.uav[24].startZ 540m
param *.uav[25].startX 2185m
param *.uav[25].startY 3026m
param *.uav[25].startZ 778m
param *.uav[26].startX 3537m
param *.uav[26].startY 965m
param *.uav[26].startZ 539m
param *.uav[27].startX 312m
param *.uav[27].startY 1262m
param *.uav[27].startZ 540m
param *.uav[28].startX 2185m
param *.uav[28].startY 3026m
param *.uav[28].startZ 778m
param *.uav[29].startX 3537m
param *.uav[29].startY 965m
param *.uav[29].startZ 539m
param *.uav[30].startX 3537m
param *.uav[30].startY 965m
param *.uav[30].startZ 539m
param *.uav[31].startX 312m
param *.uav[31].startY 1262m
param *.uav[31].startZ 540m
param *.uav[32].startX 2185m
param *.uav[32].startY 3026m
param *.uav[32].startZ 778m
param *.uav[33].startX 3537m
param *.uav[33].startY 965m
param *.uav[33].startZ 539m
param *.uav[34].startX 312m
param *.uav[34].startY 1262m
param *.uav[34].startZ 540m
param *.uav[35].startX 2185m
param *.uav[35].startY 3026m
param *.uav[35].startZ 778m
param *.uav[36].startX 3537m
param *.uav[36].startY 965m
param *.uav[36].startZ 539m
param *.uav[37].startX 312m
param *.uav[37].startY 1262m
param *.uav[37].startZ 540m
param *.uav[38].startX 2185m
param *.uav[38].startY 3026m
param *.uav[38].startZ 778m
param *.uav[39].startX 3537m
param *.uav[39].startY 965m
param *.uav[39].startZ 539m
param *.uav[40].startX 3537m
param *.uav[40].startY 965m
param *.uav[40].startZ 539m
param *.uav[41].startX 312m
param *.uav[41].startY 1262m
param *.uav[41].startZ 540m
param *.uav[42].startX 2185m
param *.uav[42].startY 3026m
param *.uav[42].startZ 778m
param *.uav[43].startX 3537m
param *.uav[43].startY 965m
param *.uav[43].startZ 539m
param *.uav[44].startX 312m
param *.uav[44].startY 1262m
param *.uav[44].startZ 540m
param *.uav[45].startX 2185m
param *.uav[45].startY 3026m
param *.uav[45].startZ 778m
param *.uav[46].startX 3537m
param *.uav[46].startY 965m
param *.uav[46].startZ 539m
param *.uav[47].startX 312m
param *.uav[47].startY 1262m
param *.uav[47].startZ 540m
param *.uav[48].startX 2185m
param *.uav[48].startY 3026m
param *.uav[48].startZ 778m
param *.uav[49].startX 3537m
param *.uav[49].startY 965m
param *.uav[49].startZ 539m
param *.uav[50].startX 3537m
param *.uav[50].startY 965m
param *.uav[50].startZ 539m
param *.uav[51].startX 312m
param *.uav[51].startY 1262m
param *.uav[51].startZ 540m
param *.uav[52].startX 2185m
param *.uav[52].startY 3026m
param *.uav[52].startZ 778m
param *.uav[53].startX 3537m
param *.uav[53].startY 965m
param *.uav[53].startZ 539m
param *.uav[54].startX 312m
param *.uav[54].startY 1262m
param *.uav[54].startZ 540m
param *.uav[55].startX 2185m
param *.uav[55].startY 3026m
param *.uav[55].startZ 778m
param *.uav[56].startX 3537m
param *.uav[56].startY 965m
param *.uav[56].startZ 539m
param *.uav[57].startX 312m
param *.uav[57].startY 1262m
param *.uav[57].startZ 540m
param *.uav[58].startX 2185m
param *.uav[58].startY 3026m
param *.uav[58].startZ 778m
param *.uav[59].startX 3537m
param *.uav[59].startY 965m
param *.uav[59].startZ 539m
param *.uav[60].startX 3537m
param *.uav[60].startY 965m
param *.uav[60].startZ 539m
param *.uav[61].startX 312m
param *.uav[61].startY 1262m
param *.uav[61].startZ 540m
param *.uav[62].startX 2185m
param *.uav[62].startY 3026m
param *.uav[62].startZ 778m
param *.uav[63].startX 3537m
param *.uav[63].startY 965m
param *.uav[63].startZ 539m
param *.uav[64].startX 312m
param *.uav[64].startY 1262m
param *.uav[64].startZ 540m
param *.uav[65].startX 2185m
param *.uav[65].startY 3026m
param *.uav[65].startZ 778m
param *.uav[66].startX 3537m
param *.uav[66].startY 965m
param *.uav[66].startZ 539m
param *.uav[67].startX 312m
param *.uav[67].startY 1262m
param *.uav[67].startZ 540m
param *.uav[68].startX 2185m
param *.uav[68].startY 3026m
param *.uav[68].startZ 778m
param *.uav[69].startX 3537m
param *.uav[69].startY 965m
param *.uav[69].startZ 539m
param *.uav[70].startX 3537m
param *.uav[70].startY 965m
param *.uav[70].startZ 539m
param *.uav[71].startX 312m
param *.uav[71].startY 1262m
param *.uav[71].startZ 540m
param *.uav[72].startX 2185m
param *.uav[72].startY 3026m
param *.uav[72].startZ 778m
param *.uav[73].startX 3537m
param *.uav[73].startY 965m
param *.uav[73].startZ 539m
param *.uav[74].startX 312m
param *.uav[74].startY 1262m
param *.uav[74].startZ 540m
param *.uav[75].startX 2185m
param *.uav[75].startY 3026m
param *.uav[75].startZ 778m
param *.uav[76].startX 3537m
param *.uav[76].startY 965m
param *.uav[76].startZ 539m
param *.uav[77].startX 312m
param *.uav[77].startY 1262m
param *.uav[77].startZ 540m
param *.uav[78].startX 2185m
param *.uav[78].startY 3026m
param *.uav[78].startZ 778m
param *.uav[79].startX 3537m
param *.uav[79].startY 965m
param *.uav[79].startZ 539m
param *.uav[80].startX 3537m
param *.uav[80].startY 965m
param *.uav[80].startZ 539m
param *.uav[81].startX 312m
param *.uav[81].startY 1262m
param *.uav[81].startZ 540m
param *.uav[82].startX 2185m
param *.uav[82].startY 3026m
param *.uav[82].startZ 778m
param *.uav[83].startX 3537m
param *.uav[83].startY 965m
param *.uav[83].startZ 539m
param *.uav[84].startX 312m
param *.uav[84].startY 1262m
param *.uav[84].startZ 540m
param *.uav[85].startX 2185m
param *.uav[85].startY 3026m
param *.uav[85].startZ 778m
param *.uav[86].startX 3537m
param *.uav[86].startY 965m
param *.uav[86].startZ 539m
param *.uav[87].startX 312m
param *.uav[87].startY 1262m
param *.uav[87].startZ 540m
param *.uav[88].startX 2185m
param *.uav[88].startY 3026m
param *.uav[88].startZ 778m
param *.uav[89].startX 3537m
param *.uav[89].startY 965m
param *.uav[89].startZ 539m
param *.uav[90].startX 3537m
param *.uav[90].startY 965m
param *.uav[90].startZ 539m
param *.uav[91].startX 312m
param *.uav[91].startY 1262m
param *.uav[91].startZ 540m
param *.uav[92].startX 2185m
param *.uav[92].startY 3026m
param *.uav[92].startZ 778m
param *.uav[93].startX 3537m
param *.uav[93].startY 965m
param *.uav[93].startZ 539m
param *.uav[94].startX 312m
param *.uav[94].startY 1262m
param *.uav[94].startZ 540m
param *.uav[95].startX 2185m
param *.uav[95].startY 3026m
param *.uav[95].startZ 778m
param *.uav[96].startX 3537m
param *.uav[96].startY 965m
param *.uav[96].startZ 539m
param *.uav[97].startX 312m
param *.uav[97].startY 1262m
param *.uav[97].startZ 540m
param *.uav[98].startX 2185m
param *.uav[98].startY 3026m
param *.uav[98].startZ 778m
param *.uav[99].startX 3537m
param *.uav[99].startY 965m
param *.uav[99].startZ 539m
param *.osgEarthScene.scene "\"boston.earth\""
param *.playgroundLatitude 42.3558
param *.playgroundLongitude -71.0677
param *.playgroundWidth 400m
param *.playgroundHeight 200m
param *.channelController.connectionColor "\"#0000FF40\""
param *.channelController.showConnections false
param *.uav[*].modelURL "\"quadrocopter.small.obj.15.scale.0,0,90.rot\""
param *.uav[*].labelColor "\"#FF7C00CC\""
param *.uav[*].label2Color "\"#FF7C00EE\""
param *.uav[*].batteryCapacity 5200mAh
param *.uav[*].batteryRemaining uav[index].batteryCapacity
param *.uav[*].predictionQuantile 0.95
param *.uav[*].replacementMethod 2
param *.uav[*].weightedSumWeight 0.5
param *.cs[*].modelURL "\"chargingstation_v1.osgt.2.scale.0,0,0.rot.0,0,-15e-1.trans\""
param *.cs[*].spotsWaiting 999
param *.cs[*].spotsCharging 999
param *.cs[*].chargeEffectivenessPercentage 100
param *.cs[*].nonLinearPhaseStartPercentage 85
param *.cs[*].chargeCurrent 6.0A
param *.cs[*].prioritizeFastCharge true
param *.missionControl.replacementSearchMethod 0
param *.*.timeStep 9s

scalar OsgEarthNet.uav[0] utilizationSecMission 30299.728228073
scalar OsgEarthNet.uav[0] utilizationSecMaintenance 17907.40796493
scalar OsgEarthNet.uav[0] utilizationSecCharge 176550.862807
scalar OsgEarthNet.uav[0] utilizationSecIdle 34442
scalar OsgEarthNet.uav[0] utilizationEnergyMission 140073.77329254
scalar OsgEarthNet.uav[0] utilizationEnergyMaintenance 84097.572368622
scalar OsgEarthNet.uav[0] utilizationEnergyCharge 222411.53417969
scalar OsgEarthNet.uav[0] utilizationEnergyOverdrawMission 0
scalar OsgEarthNet.uav[0] utilizationEnergyOverdrawMaintenance 0
scalar OsgEarthNet.uav[0] utilizationCountMissions 49
scalar OsgEarthNet.uav[0] utilizationCountManeuversMission 480
scalar OsgEarthNet.uav[0] utilizationCountManeuversMaintenance 97
scalar OsgEarthNet.uav[0] utilizationCountChargeState 49
scalar OsgEarthNet.uav[0] utilizationCountOverdrawnAfterMission 0
scalar OsgEarthNet.uav[0] utilizationCountIdleState 49
scalar OsgEarthNet.uav[0] utilizationFail 0
scalar OsgEarthNet.uav[0] simulationTime 259200
scalar OsgEarthNet.uav[1] utilizationSecMission 26116.317190217
scalar OsgEarthNet.uav[1] utilizationSecMaintenance 20493.156400058
scalar OsgEarthNet.uav[1] utilizationSecCharge 171559.46960576
scalar OsgEarthNet.uav[1] utilizationSecIdle 41031.055803961
scalar OsgEarthNet.uav[1] utilizationEnergyMission 119676.09252167
scalar OsgEarthNet.uav[1] utilizationEnergyMaintenance 96688.000427246
scalar OsgEarthNet.uav[1] utilizationEnergyCharge 215707.01977539
scalar OsgEarthNet.uav[1] utilizationEnergyOverdrawMission 0
scalar OsgEarthNet.uav[1] utilizationEnergyOverdrawMaintenance 0
scalar OsgEarthNet.uav[1] utilizationCountMissions 47
scalar OsgEarthNet.uav[1] utilizationCountManeuversMission 425
scalar OsgEarthNet.uav[1] utilizationCountManeuversMaintenance 94
scalar OsgEarthNet.uav[1] utilizationCountChargeState 47
scalar OsgEarthNet.uav[1] utilizationCountOverdrawnAfterMission 0
scalar OsgEarthNet.uav[1] utilizationCountIdleState 47
scalar OsgEarthNet.uav[1] utilizationFail 0
scalar OsgEarthNet.uav[1] simulationTime 259200
scalar OsgEarthNet.uav[2] utilizationSecMission 20982.955642857
scalar OsgEarthNet.uav[2] utilizationSecMaintenance 15761.58770374
scalar OsgEarthNet.uav[2] utilizationSecCharge 134250
scalar OsgEarthNet.uav[2] utilizationSecIdle 88205.455653403
scalar OsgEarthNet.uav[2] utilizationEnergyMission 97017.243069818
scalar OsgEarthNet.uav[2] utilizationEnergyMaintenance 73058.450275421
scalar OsgEarthNet.uav[2] utilizationEnergyCharge 168199.10791016
scalar OsgEarthNet.uav[2] utilizationEnergyOverdrawMission 0
scalar OsgEarthNet.uav[2] utilizationEnergyOverdrawMaintenance 0
scalar OsgEarthNet.uav[2] utilizationCountMissions 37
scalar OsgEarthNet.uav[2] utilizationCountManeuversMission 352
scalar OsgEarthNet.uav[2] utilizationCountManeuversMaintenance 75
scalar OsgEarthNet.uav[2] utilizationCountChargeState 37
scalar OsgEarthNet.uav[2] utilizationCountOverdrawnAfterMission 0
scalar OsgEarthNet.uav[2] utilizationCountIdleState 38
scalar OsgEarthNet.uav[2] utilizationFail 0
scalar OsgEarthNet.uav[2] simulationTime 259200
scalar OsgEarthNet.uav[3] utilizationSecMission 406.05775011247
scalar OsgEarthNet.uav[3] utilizationSecMaintenance 476.61924102071
scalar OsgEarthNet.uav[3] utilizationSecCharge 3180
scalar OsgEarthNet.uav[3] utilizationSecIdle 255137.32200887
scalar OsgEarthNet.uav[3] utilizationEnergyMission 1729.9396972656
scalar OsgEarthNet.uav[3] utilizationEnergyMaintenance 2053.4529037476
scalar OsgEarthNet.uav[3] utilizationEnergyCharge 3783.3989257812
scalar OsgEarthNet.uav[3] utilizationEnergyOverdrawMission 0
scalar OsgEarthNet.uav[3] utilizationEnergyOverdrawMaintenance 0
scalar OsgEarthNet.uav[3] utilizationCountMissions 1
scalar OsgEarthNet.uav[3] utilizationCountManeuversMission 6
scalar OsgEarthNet.uav[3] utilizationCountManeuversMaintenance 2
scalar OsgEarthNet.uav[3] utilizationCountChargeState 1
scalar OsgEarthNet.uav[3] utilizationCountOverdrawnAfterMission 0
scalar OsgEarthNet.uav[3] utilizationCountIdleState 2
scalar OsgEarthNet.uav[3] utilizationFail 0
scalar OsgEarthNet.uav[3] simulationTime 259200
scalar OsgEarthNet.uav[4] utilizationSecMission 26888.502901982
scalar OsgEarthNet.uav[4] utilizationSecMaintenance 18666.838709007
scalar OsgEarthNet.uav[4] utilizationSecCharge 165794.6391061
scalar OsgEarthNet.uav[4] utilizationSecIdle 47850.018282913
scalar OsgEarthNet.uav[4] utilizationEnergyMission 125179.43830109
scalar OsgEarthNet.uav[4] utilizationEnergyMaintenance 86350.260429382
scalar OsgEarthNet.uav[4] utilizationEnergyCharge 208804.45776367
scalar OsgEarthNet.uav[4] utilizationEnergyOverdrawMission 0
scalar OsgEarthNet.uav[4] utilizationEnergyOverdrawMaintenance 0
scalar OsgEarthNet.uav[4] utilizationCountMissions 46
scalar OsgEarthNet.uav[4] utilizationCountManeuversMission 437
scalar OsgEarthNet.uav[4] utilizationCountManeuversMaintenance 92
scalar OsgEarthNet.uav[4] utilizationCountChargeState 46
scalar OsgEarthNet.uav[4] utilizationCountOverdrawnAfterMission 0
scalar OsgEarthNet.uav[4] utilizationCountIdleState 46
scalar OsgEarthNet.uav[4] utilizationFail 0
scalar OsgEarthNet.uav[4] simulationTime 259200
scalar OsgEarthNet.uav[5] utilizationSecMission 10723.658733937
scalar OsgEarthNet.uav[5] utilizationSecMaintenance 8196.2552720401
scalar OsgEarthNet.uav[5] utilizationSecCharge 69580
scalar OsgEarthNet.uav[5] utilizationSecIdle 170700.08499402
scalar OsgEarthNet.uav[5] utilizationEnergyMission 49308.573890686
scalar OsgEarthNet.uav[5] utilizationEnergyMaintenance 38156.336368561
scalar OsgEarthNet.uav[5] utilizationEnergyCharge 87461.730712891
scalar OsgEarthNet.uav[5] utilizationEnergyOverdrawMission 0
scalar OsgEarthNet.uav[5] utilizationEnergyOverdrawMaintenance 0
scalar OsgEarthNet.uav[5] utilizationCountMissions 19
scalar OsgEarthNet.uav[5] utilizationCountManeuversMission 179
scalar OsgEarthNet.uav[5] utilizationCountManeuversMaintenance 38
scalar OsgEarthNet.uav[5] utilizationCountChargeState 19
scalar OsgEarthNet.uav[5] utilizationCountOverdrawnAfterMission 0
scalar OsgEarthNet.uav[5] utilizationCountIdleState 20
scalar OsgEarthNet.uav[5] utilizationFail 0
scalar OsgEarthNet.uav[5] simulationTime 259200
scalar OsgEarthNet.uav[6] utilizationSecMission 622.99605640573
scalar OsgEarthNet.uav[6] utilizationSecMaintenance 319.78771796751
scalar OsgEarthNet.uav[6] utilizationSecCharge 3800
scalar OsgEarthNet.uav[6] utilizationSecIdle 254457.21522563
scalar OsgEarthNet.uav[6] utilizationEnergyMission 3166.7680511475
scalar OsgEarthNet.uav[6] utilizationEnergyMaintenance 1694.0995597839
scalar OsgEarthNet.uav[6] utilizationEnergyCharge 4860.8662109375
scalar OsgEarthNet.uav[6] utilizationEnergyOverdrawMission 0
scalar OsgEarthNet.uav[6] utilizationEnergyOverdrawMaintenance 0
scalar OsgEarthNet.uav[6] utilizationCountMissions 1
scalar OsgEarthNet.uav[6] utilizationCountManeuversMission 9
scalar OsgEarthNet.uav[6] utilizationCountManeuversMaintenance 2
scalar OsgEarthNet.uav[6] utilizationCountChargeState 1
scalar OsgEarthNet.uav[6] utilizationCountOverdrawnAfterMission 0
scalar OsgEarthNet.uav[6] utilizationCountIdleState 2
scalar OsgEarthNet.uav[6] utilizationFail 0
scalar OsgEarthNet.uav[6] simulationTime 259200
scalar OsgEarthNet.uav[7] utilizationSecMission 553.12566654921
scalar OsgEarthNet.uav[7] utilizationSecMaintenance 489.82638271256
scalar OsgEarthNet.uav[7] utilizationSecCharge 3860
scalar OsgEarthNet.uav[7] utilizationSecIdle 254297.04695074
scalar OsgEarthNet.uav[7] utilizationEnergyMission 2527.9971466064
scalar OsgEarthNet.uav[7] utilizationEnergyMaintenance 2431.3401908874
scalar OsgEarthNet.uav[7] utilizationEnergyCharge 4971.3544921875
scalar OsgEarthNet.uav[7] utilizationEnergyOverdrawMission 0
scalar OsgEarthNet.uav[7] utilizationEnergyOverdrawMaintenance 0
scalar OsgEarthNet.uav[7] utilizationCountMissions 1
scalar OsgEarthNet.uav[7] utilizationCountManeuversMission 9
scalar OsgEarthNet.uav[7] utilizationCountManeuversMaintenance 2
scalar OsgEarthNet.uav[7] utilizationCountChargeState 1
scalar OsgEarthNet.uav[7] utilizationCountOverdrawnAfterMission 0
scalar OsgEarthNet.uav[7] utilizationCountIdleState 2
scalar OsgEarthNet.uav[7] utilizationFail 0
scalar OsgEarthNet.uav[7] simulationTime 259200
scalar OsgEarthNet.uav[8] utilizationSecMission 28913.762867444
scalar OsgEarthNet.uav[8] utilizationSecMaintenance 19461.906276072
scalar OsgEarthNet.uav[8] utilizationSecCharge 177022.32985648
scalar OsgEarthNet.uav[8] utilizationSecIdle 33802
scalar OsgEarthNet.uav[8] utilizationEnergyMission 135498.69248086
scalar OsgEarthNet.uav[8] utilizationEnergyMaintenance 91086.552055359
scalar OsgEarthNet.uav[8] utilizationEnergyCharge 223357.39782715
scalar OsgEarthNet.uav[8] utilizationEnergyOverdrawMission 0
scalar OsgEarthNet.uav[8] utilizationEnergyOverdrawMaintenance 0
scalar OsgEarthNet.uav[8] utilizationCountMissions 49
scalar OsgEarthNet.uav[8] utilizationCountManeuversMission 478
scalar OsgEarthNet.uav[8] utilizationCountManeuversMaintenance 97
scalar OsgEarthNet.uav[8] utilizationCountChargeState 49
scalar OsgEarthNet.uav[8] utilizationCountOverdrawnAfterMission 0
scalar OsgEarthNet.uav[8] utilizationCountIdleState 49
scalar OsgEarthNet.uav[8] utilizationFail 0
scalar OsgEarthNet.uav[8] simulationTime 259200
scalar OsgEarthNet.uav[9] utilizationSecMission 23745.602068974
scalar OsgEarthNet.uav[9] utilizationSecMaintenance 14610.695730584
scalar OsgEarthNet.uav[9] utilizationSecCharge 138250
scalar OsgEarthNet.uav[9] utilizationSecIdle 82593.701200441
scalar OsgEarthNet.uav[9] utilizationEnergyMission 108240.94817352
scalar OsgEarthNet.uav[9] utilizationEnergyMaintenance 69253.502358767
scalar OsgEarthNet.uav[9] utilizationEnergyCharge 173272.98339844
scalar OsgEarthNet.uav[9] utilizationEnergyOverdrawMission 0
scalar OsgEarthNet.uav[9] utilizationEnergyOverdrawMaintenance 0
scalar OsgEarthNet.uav[9] utilizationCountMissions 39
scalar OsgEarthNet.uav[9] utilizationCountManeuversMission 388
scalar OsgEarthNet.uav[9] utilizationCountManeuversMaintenance 78
scalar OsgEarthNet.uav[9] utilizationCountChargeState 38
scalar OsgEarthNet.uav[9] utilizationCountOverdrawnAfterMission 0
scalar OsgEarthNet.uav[9] utilizationCountIdleState 39
scalar OsgEarthNet.uav[9] utilizationFail 0
scalar OsgEarthNet.uav[9] simulationTime 259200
scalar OsgEarthNet.uav[10] utilizationSecMission 20541.8307627
scalar OsgEarthNet.uav[10] utilizationSecMaintenance 12167.556075738
scalar OsgEarthNet.uav[10] utilizationSecCharge 118715.6586507
scalar OsgEarthNet.uav[10] utilizationSecIdle 107774.95351086
scalar OsgEarthNet.uav[10] utilizationEnergyMission 95190.289070129
scalar OsgEarthNet.uav[10] utilizationEnergyMaintenance 56703.732234955
scalar OsgEarthNet.uav[10] utilizationEnergyCharge 150330.50439453
scalar OsgEarthNet.uav[10] utilizationEnergyOverdrawMission 0
scalar OsgEarthNet.uav[10] utilizationEnergyOverdrawMaintenance 0
scalar OsgEarthNet.uav[10] utilizationCountMissions 33
scalar OsgEarthNet.uav[10] utilizationCountManeuversMission 330
scalar OsgEarthNet.uav[10] utilizationCountManeuversMaintenance 66
scalar OsgEarthNet.uav[10] utilizationCountChargeState 33
scalar OsgEarthNet.uav[10] utilizationCountOverdrawnAfterMission 0
scalar OsgEarthNet.uav[10] utilizationCountIdleState 33
scalar OsgEarthNet.uav[10] utilizationFail 0
scalar OsgEarthNet.uav[10] simulationTime 259200
scalar OsgEarthNet.uav[11] utilizationSecMission 648.09208854277
scalar OsgEarthNet.uav[11] utilizationSecMaintenance 399.17886017656
scalar OsgEarthNet.uav[11] utilizationSecCharge 3830
scalar OsgEarthNet.uav[11] utilizationSecIdle 254322.72805128
scalar OsgEarthNet.uav[11] utilizationEnergyMission 3131.6227874756
scalar OsgEarthNet.uav[11] utilizationEnergyMaintenance 1919.9084281921
scalar OsgEarthNet.uav[11] utilizationEnergyCharge 4893.5717773438
scalar OsgEarthNet.uav[11] utilizationEnergyOverdrawMission 0
scalar OsgEarthNet.uav[11] utilizationEnergyOverdrawMaintenance 0
scalar OsgEarthNet.uav[11] utilizationCountMissions 1
scalar OsgEarthNet.uav[11] utilizationCountManeuversMission 10
scalar OsgEarthNet.uav[11] utilizationCountManeuversMaintenance 2
scalar OsgEarthNet.uav[11] utilizationCountChargeState 1
scalar OsgEarthNet.uav[11] utilizationCountOverdrawnAfterMission 0
scalar OsgEarthNet.uav[11] utilizationCountIdleState 2
scalar OsgEarthNet.uav[11] utilizationFail 0
scalar OsgEarthNet.uav[11] simulationTime 259200
scalar OsgEarthNet.uav[12] utilizationSecMission 836.61593493339
scalar OsgEarthNet.uav[12] utilizationSecMaintenance 137.80524816792
scalar OsgEarthNet.uav[12] utilizationSecCharge 3590
scalar OsgEarthNet.uav[12] utilizationSecIdle 254635.5778169
scalar OsgEarthNet.uav[12] utilizationEnergyMission 3974.9143829346
scalar OsgEarthNet.uav[12] utilizationEnergyMaintenance 592.16954803467
scalar OsgEarthNet.uav[12] utilizationEnergyCharge 4520.9770507812
scalar OsgEarthNet.uav[12] utilizationEnergyOverdrawMission 0
scalar OsgEarthNet.uav[12] utilizationEnergyOverdrawMaintenance 0
scalar OsgEarthNet.uav[12] utilizationCountMissions 1
scalar OsgEarthNet.uav[12] utilizationCountManeuversMission 13
scalar OsgEarthNet.uav[12] utilizationCountManeuversMaintenance 2
scalar OsgEarthNet.uav[12] utilizationCountChargeState 1
scalar OsgEarthNet.uav[12] utilizationCountOverdrawnAfterMission 0
scalar OsgEarthNet.uav[12] utilizationCountIdleState 2
scalar OsgEarthNet.uav[12] utilizationFail 0
scalar OsgEarthNet.uav[12] simulationTime 259200
scalar OsgEarthNet.uav[13] utilizationSecMission 28201.423132815
scalar OsgEarthNet.uav[13] utilizationSecMaintenance 18111.11811071
scalar OsgEarthNet.uav[13] utilizationSecCharge 167773.46283173
scalar OsgEarthNet.uav[13] utilizationSecIdle 45113.994924748
scalar OsgEarthNet.uav[13] utilizationEnergyMission 130233.60215759
scalar OsgEarthNet.uav[13] utilizationEnergyMaintenance 83084.575378418
scalar OsgEarthNet.uav[13] utilizationEnergyCharge 210574.23596191
scalar OsgEarthNet.uav[13] utilizationEnergyOverdrawMission 0
scalar OsgEarthNet.uav[13] utilizationEnergyOverdrawMaintenance 0
scalar OsgEarthNet.uav[13] utilizationCountMissions 47
scalar OsgEarthNet.uav[13] utilizationCountManeuversMission 457
scalar OsgEarthNet.uav[13] utilizationCountManeuversMaintenance 94
scalar OsgEarthNet.uav[13] utilizationCountChargeState 47
scalar OsgEarthNet.uav[13] utilizationCountOverdrawnAfterMission 0
scalar OsgEarthNet.uav[13] utilizationCountIdleState 47
scalar OsgEarthNet.uav[13] utilizationFail 0
scalar OsgEarthNet.uav[13] simulationTime 259200
scalar OsgEarthNet.uav[14] utilizationSecMission 1782.2650292065
scalar OsgEarthNet.uav[14] utilizationSecMaintenance 1183.4784474549
scalar OsgEarthNet.uav[14] utilizationSecCharge 10870
scalar OsgEarthNet.uav[14] utilizationSecIdle 245364.25552334
scalar OsgEarthNet.uav[14] utilizationEnergyMission 8197.5880508423
scalar OsgEarthNet.uav[14] utilizationEnergyMaintenance 5459.9329566956
scalar OsgEarthNet.uav[14] utilizationEnergyCharge 13657.515869141
scalar OsgEarthNet.uav[14] utilizationEnergyOverdrawMission 0
scalar OsgEarthNet.uav[14] utilizationEnergyOverdrawMaintenance 0
scalar OsgEarthNet.uav[14] utilizationCountMissions 3
scalar OsgEarthNet.uav[14] utilizationCountManeuversMission 31
scalar OsgEarthNet.uav[14] utilizationCountManeuversMaintenance 6
scalar OsgEarthNet.uav[14] utilizationCountChargeState 3
scalar OsgEarthNet.uav[14] utilizationCountOverdrawnAfterMission 0
scalar OsgEarthNet.uav[14] utilizationCountIdleState 4
scalar OsgEarthNet.uav[14] utilizationFail 0
scalar OsgEarthNet.uav[14] simulationTime 259200
scalar OsgEarthNet.uav[15] utilizationSecMission 28569.573643751
scalar OsgEarthNet.uav[15] utilizationSecMaintenance 19281.045704672
scalar OsgEarthNet.uav[15] utilizationSecCharge 174434.8817104
scalar OsgEarthNet.uav[15] utilizationSecIdle 36914.497941176
scalar OsgEarthNet.uav[15] utilizationEnergyMission 133053.54053497
scalar OsgEarthNet.uav[15] utilizationEnergyMaintenance 89796.962387085
scalar OsgEarthNet.uav[15] utilizationEnergyCharge 218671.48376465
scalar OsgEarthNet.uav[15] utilizationEnergyOverdrawMission 0
scalar OsgEarthNet.uav[15] utilizationEnergyOverdrawMaintenance 0
scalar OsgEarthNet.uav[15] utilizationCountMissions 49
scalar OsgEarthNet.uav[15] utilizationCountManeuversMission 473
scalar OsgEarthNet.uav[15] utilizationCountManeuversMaintenance 98
scalar OsgEarthNet.uav[15] utilizationCountChargeState 49
scalar OsgEarthNet.uav[15] utilizationCountOverdrawnAfterMission 0
scalar OsgEarthNet.uav[15] utilizationCountIdleState 49
scalar OsgEarthNet.uav[15] utilizationFail 0
scalar OsgEarthNet.uav[15] simulationTime 259200
scalar OsgEarthNet.uav[16] utilizationSecMission 10621.162522872
scalar OsgEarthNet.uav[16] utilizationSecMaintenance 6375.6631620926
scalar OsgEarthNet.uav[16] utilizationSecCharge 62660
scalar OsgEarthNet.uav[16] utilizationSecIdle 179543.17331504
scalar OsgEarthNet.uav[16] utilizationEnergyMission 49390.181884766
scalar OsgEarthNet.uav[16] utilizationEnergyMaintenance 29309.618782043
scalar OsgEarthNet.uav[16] utilizationEnergyCharge 78928.632324219
scalar OsgEarthNet.uav[16] utilizationEnergyOverdrawMission 0
scalar OsgEarthNet.uav[16] utilizationEnergyOverdrawMaintenance 0
scalar OsgEarthNet.uav[16] utilizationCountMissions 17
scalar OsgEarthNet.uav[16] utilizationCountManeuversMission 177
scalar OsgEarthNet.uav[16] utilizationCountManeuversMaintenance 34
scalar OsgEarthNet.uav[16] utilizationCountChargeState 17
scalar OsgEarthNet.uav[16] utilizationCountOverdrawnAfterMission 0
scalar OsgEarthNet.uav[16] utilizationCountIdleState 18
scalar OsgEarthNet.uav[16] utilizationFail 0
scalar OsgEarthNet.uav[16] simulationTime 259200
scalar OsgEarthNet.uav[17] utilizationSecMission 21717.463710324
scalar OsgEarthNet.uav[17] utilizationSecMaintenance 12976.41791371
scalar OsgEarthNet.uav[17] utilizationSecCharge 124074.6113283
scalar OsgEarthNet.uav[17] utilizationSecIdle 100431.50604766
scalar OsgEarthNet.uav[17] utilizationEnergyMission 99360.748245239
scalar OsgEarthNet.uav[17] utilizationEnergyMaintenance 59638.340209961
scalar OsgEarthNet.uav[17] utilizationEnergyCharge 155938.00976562
scalar OsgEarthNet.uav[17] utilizationEnergyOverdrawMission 0
scalar OsgEarthNet.uav[17] utilizationEnergyOverdrawMaintenance 0
scalar OsgEarthNet.uav[17] utilizationCountMissions 35
scalar OsgEarthNet.uav[17] utilizationCountManeuversMission 361
scalar OsgEarthNet.uav[17] utilizationCountManeuversMaintenance 70
scalar OsgEarthNet.uav[17] utilizationCountChargeState 35
scalar OsgEarthNet.uav[17] utilizationCountOverdrawnAfterMission 0
scalar OsgEarthNet.uav[17] utilizationCountIdleState 35
scalar OsgEarthNet.uav[17] utilizationFail 0
scalar OsgEarthNet.uav[17] simulationTime 259200
scalar OsgEarthNet.uav[18] utilizationSecMission 23395.439744751
scalar OsgEarthNet.uav[18] utilizationSecMaintenance 15498.20621715
scalar OsgEarthNet.uav[18] utilizationSecCharge 141276.72195743
scalar OsgEarthNet.uav[18] utilizationSecIdle 79029.631080665
scalar OsgEarthNet.uav[18] utilizationEnergyMission 107601.68481445
scalar OsgEarthNet.uav[18] utilizationEnergyMaintenance 71945.798603058
scalar OsgEarthNet.uav[18] utilizationEnergyCharge 178574.53833008
scalar OsgEarthNet.uav[18] utilizationEnergyOverdrawMission 0
scalar OsgEarthNet.uav[18] utilizationEnergyOverdrawMaintenance 0
scalar OsgEarthNet.uav[18] utilizationCountMissions 39
scalar OsgEarthNet.uav[18] utilizationCountManeuversMission 382
scalar OsgEarthNet.uav[18] utilizationCountManeuversMaintenance 78
scalar OsgEarthNet.uav[18] utilizationCountChargeState 39
scalar OsgEarthNet.uav[18] utilizationCountOverdrawnAfterMission 0
scalar OsgEarthNet.uav[18] utilizationCountIdleState 39
scalar OsgEarthNet.uav[18] utilizationFail 0
scalar OsgEarthNet.uav[18] simulationTime 259200
scalar OsgEarthNet.uav[19] utilizationSecMission 28237.944018338
scalar OsgEarthNet.uav[19] utilizationSecMaintenance 18222.11071249
scalar OsgEarthNet.uav[19] utilizationSecCharge 168620
scalar OsgEarthNet.uav[19] utilizationSecIdle 44119.944269172
scalar OsgEarthNet.uav[19] utilizationEnergyMission 131662.68397458
scalar OsgEarthNet.uav[19] utilizationEnergyMaintenance 84358.536460876
scalar OsgEarthNet.uav[19] utilizationEnergyCharge 212028.28491211
scalar OsgEarthNet.uav[19] utilizationEnergyOverdrawMission 0
scalar OsgEarthNet.uav[19] utilizationEnergyOverdrawMaintenance 0
scalar OsgEarthNet.uav[19] utilizationCountMissions 46
scalar OsgEarthNet.uav[19] utilizationCountManeuversMission 466
scalar OsgEarthNet.uav[19] utilizationCountManeuversMaintenance 93
scalar OsgEarthNet.uav[19] utilizationCountChargeState 46
scalar OsgEarthNet.uav[19] utilizationCountOverdrawnAfterMission 0
scalar OsgEarthNet.uav[19] utilizationCountIdleState 47
scalar OsgEarthNet.uav[19] utilizationFail 0
scalar OsgEarthNet.uav[19] simulationTime 259200
scalar OsgEarthNet.uav[20] utilizationSecMission 13472.8494531
scalar OsgEarthNet.uav[20] utilizationSecMaintenance 10199.504300104
scalar OsgEarthNet.uav[20] utilizationSecCharge 87380
scalar OsgEarthNet.uav[20] utilizationSecIdle 148147.6452468
scalar OsgEarthNet.uav[20] utilizationEnergyMission 61938.736099243
scalar OsgEarthNet.uav[20] utilizationEnergyMaintenance 47804.799285889
scalar OsgEarthNet.uav[20] utilizationEnergyCharge 109526.47509766
scalar OsgEarthNet.uav[20] utilizationEnergyOverdrawMission 0
scalar OsgEarthNet.uav[20] utilizationEnergyOverdrawMaintenance 0
scalar OsgEarthNet.uav[20] utilizationCountMissions 24
scalar OsgEarthNet.uav[20] utilizationCountManeuversMission 223
scalar OsgEarthNet.uav[20] utilizationCountManeuversMaintenance 48
scalar OsgEarthNet.uav[20] utilizationCountChargeState 24
scalar OsgEarthNet.uav[20] utilizationCountOverdrawnAfterMission 0
scalar OsgEarthNet.uav[20] utilizationCountIdleState 25
scalar OsgEarthNet.uav[20] utilizationFail 0
scalar OsgEarthNet.uav[20] simulationTime 259200
scalar OsgEarthNet.uav[21] utilizationSecMission 25511.813250074
scalar OsgEarthNet.uav[21] utilizationSecMaintenance 16753.209941537
scalar OsgEarthNet.uav[21] utilizationSecCharge 155030
scalar OsgEarthNet.uav[21] utilizationSecIdle 61904.975808389
scalar OsgEarthNet.uav[21] utilizationEnergyMission 116534.91635132
scalar OsgEarthNet.uav[21] utilizationEnergyMaintenance 77723.000228882
scalar OsgEarthNet.uav[21] utilizationEnergyCharge 193864.22973633
scalar OsgEarthNet.uav[21] utilizationEnergyOverdrawMission 0
scalar OsgEarthNet.uav[21] utilizationEnergyOverdrawMaintenance 0
scalar OsgEarthNet.uav[21] utilizationCountMissions 43
scalar OsgEarthNet.uav[21] utilizationCountManeuversMission 417
scalar OsgEarthNet.uav[21] utilizationCountManeuversMaintenance 86
scalar OsgEarthNet.uav[21] utilizationCountChargeState 43
scalar OsgEarthNet.uav[21] utilizationCountOverdrawnAfterMission 0
scalar OsgEarthNet.uav[21] utilizationCountIdleState 44
scalar OsgEarthNet.uav[21] utilizationFail 0
scalar OsgEarthNet.uav[21] simulationTime 259200
scalar OsgEarthNet.uav[22] utilizationSecMission 750.20472747826
scalar OsgEarthNet.uav[22] utilizationSecMaintenance 255.5651663541
scalar OsgEarthNet.uav[22] utilizationSecCharge 3820
scalar OsgEarthNet.uav[22] utilizationSecIdle 254374.22910617
scalar OsgEarthNet.uav[22] utilizationEnergyMission 3676.0198516846
scalar OsgEarthNet.uav[22] utilizationEnergyMaintenance 1220.957775116
scalar OsgEarthNet.uav[22] utilizationEnergyCharge 4896.97265625
scalar OsgEarthNet.uav[22] utilizationEnergyOverdrawMission 0
scalar OsgEarthNet.uav[22] utilizationEnergyOverdrawMaintenance 0
scalar OsgEarthNet.uav[22] utilizationCountMissions 1
scalar OsgEarthNet.uav[22] utilizationCountManeuversMission 11
scalar OsgEarthNet.uav[22] utilizationCountManeuversMaintenance 2
scalar OsgEarthNet.uav[22] utilizationCountChargeState 1
scalar OsgEarthNet.uav[22] utilizationCountOverdrawnAfterMission 0
scalar OsgEarthNet.uav[22] utilizationCountIdleState 2
scalar OsgEarthNet.uav[22] utilizationFail 0
scalar OsgEarthNet.uav[22] simulationTime 259200
scalar OsgEarthNet.uav[23] utilizationSecMission 313.66140879233
scalar OsgEarthNet.uav[23] utilizationSecMaintenance 473.03391658586
scalar OsgEarthNet.uav[23] utilizationSecCharge 3170
scalar OsgEarthNet.uav[23] utilizationSecIdle 255243.30367462
scalar OsgEarthNet.uav[23] utilizationEnergyMission 1458.8990783691
scalar OsgEarthNet.uav[23] utilizationEnergyMaintenance 2275.0461654663
scalar OsgEarthNet.uav[23] utilizationEnergyCharge 3733.9389648438
scalar OsgEarthNet.uav[23] utilizationEnergyOverdrawMission 0
scalar OsgEarthNet.uav[23] utilizationEnergyOverdrawMaintenance 0
scalar OsgEarthNet.uav[23] utilizationCountMissions 1
scalar OsgEarthNet.uav[23] utilizationCountManeuversMission 5
scalar OsgEarthNet.uav[23] utilizationCountManeuversMaintenance 2
scalar OsgEarthNet.uav[23] utilizationCountChargeState 1
scalar OsgEarthNet.uav[23] utilizationCountOverdrawnAfterMission 0
scalar OsgEarthNet.uav[23] utilizationCountIdleState 2
scalar OsgEarthNet.uav[23] utilizationFail 0
scalar OsgEarthNet.uav[23] simulationTime 259200
scalar OsgEarthNet.uav[24] utilizationSecMission 694.00169469977
scalar OsgEarthNet.uav[24] utilizationSecMaintenance 349.76607937241
scalar OsgEarthNet.uav[24] utilizationSecCharge 3770
scalar OsgEarthNet.uav[24] utilizationSecIdle 254386.23122593
scalar OsgEarthNet.uav[24] utilizationEnergyMission 3200.1572036743
scalar OsgEarthNet.uav[24] utilizationEnergyMaintenance 1615.1574211121
scalar OsgEarthNet.uav[24] utilizationEnergyCharge 4815.3154296875
scalar OsgEarthNet.uav[24] utilizationEnergyOverdrawMission 0
scalar OsgEarthNet.uav[24] utilizationEnergyOverdrawMaintenance 0
scalar OsgEarthNet.uav[24] utilizationCountMissions 1
scalar OsgEarthNet.uav[24] utilizationCountManeuversMission 13
scalar OsgEarthNet.uav[24] utilizationCountManeuversMaintenance 2
scalar OsgEarthNet.uav[24] utilizationCountChargeState 1
scalar OsgEarthNet.uav[24] utilizationCountOverdrawnAfterMission 0
scalar OsgEarthNet.uav[24] utilizationCountIdleState 2
scalar OsgEarthNet.uav[24] utilizationFail 0
scalar OsgEarthNet.uav[24] simulationTime 259200
scalar OsgEarthNet.uav[25] utilizationSecMission 828.1936691689
scalar OsgEarthNet.uav[25] utilizationSecMaintenance 156.97870384097
scalar OsgEarthNet.uav[25] utilizationSecCharge 3640
scalar OsgEarthNet.uav[25] utilizationSecIdle 254574.82662699
scalar OsgEarthNet.uav[25] utilizationEnergyMission 3886.3985900879
scalar OsgEarthNet.uav[25] utilizationEnergyMaintenance 649.14675140381
scalar OsgEarthNet.uav[25] utilizationEnergyCharge 4567.2666015625
scalar OsgEarthNet.uav[25] utilizationEnergyOverdrawMission 0
scalar OsgEarthNet.uav[25] utilizationEnergyOverdrawMaintenance 0
scalar OsgEarthNet.uav[25] utilizationCountMissions 1
scalar OsgEarthNet.uav[25] utilizationCountManeuversMission 13
scalar OsgEarthNet.uav[25] utilizationCountManeuversMaintenance 2
scalar OsgEarthNet.uav[25] utilizationCountChargeState 1
scalar OsgEarthNet.uav[25] utilizationCountOverdrawnAfterMission 0
scalar OsgEarthNet.uav[25] utilizationCountIdleState 2
scalar OsgEarthNet.uav[25] utilizationFail 0
scalar OsgEarthNet.uav[25] simulationTime 259200
scalar OsgEarthNet.uav[26] utilizationSecMission 442.1510352141
scalar OsgEarthNet.uav[26] utilizationSecMaintenance 530.96265869628
scalar OsgEarthNet.uav[26] utilizationSecCharge 3750
scalar OsgEarthNet.uav[26] utilizationSecIdle 254476.88530609
scalar OsgEarthNet.uav[26] utilizationEnergyMission 2141.3110809326
scalar OsgEarthNet.uav[26] utilizationEnergyMaintenance 2676.8095817566
scalar OsgEarthNet.uav[26] utilizationEnergyCharge 4818.1274414062
scalar OsgEarthNet.uav[26] utilizationEnergyOverdrawMission 0
scalar OsgEarthNet.uav[26] utilizationEnergyOverdrawMaintenance 0
scalar OsgEarthNet.uav[26] utilizationCountMissions 1
scalar OsgEarthNet.uav[26] utilizationCountManeuversMission 7
scalar OsgEarthNet.uav[26] utilizationCountManeuversMaintenance 2
scalar OsgEarthNet.uav[26] utilizationCountChargeState 1
scalar OsgEarthNet.uav[26] utilizationCountOverdrawnAfterMission 0
scalar OsgEarthNet.uav[26] utilizationCountIdleState 2
scalar OsgEarthNet.uav[26] utilizationFail 0
scalar OsgEarthNet.uav[26] simulationTime 259200
scalar OsgEarthNet.uav[27] utilizationSecMission 28826.861359277
scalar OsgEarthNet.uav[27] utilizationSecMaintenance 18994.406172264
scalar OsgEarthNet.uav[27] utilizationSecCharge 176144.11957894
scalar OsgEarthNet.uav[27] utilizationSecIdle 35234.611889516
scalar OsgEarthNet.uav[27] utilizationEnergyMission 133186.01416016
scalar OsgEarthNet.uav[27] utilizationEnergyMaintenance 88186.664051056
scalar OsgEarthNet.uav[27] utilizationEnergyCharge 220954.00024414
scalar OsgEarthNet.uav[27] utilizationEnergyOverdrawMission 0
scalar OsgEarthNet.uav[27] utilizationEnergyOverdrawMaintenance 0
scalar OsgEarthNet.uav[27] utilizationCountMissions 49
scalar OsgEarthNet.uav[27] utilizationCountManeuversMission 480
scalar OsgEarthNet.uav[27] utilizationCountManeuversMaintenance 98
scalar OsgEarthNet.uav[27] utilizationCountChargeState 49
scalar OsgEarthNet.uav[27] utilizationCountOverdrawnAfterMission 0
scalar OsgEarthNet.uav[27] utilizationCountIdleState 49
scalar OsgEarthNet.uav[27] utilizationFail 0
scalar OsgEarthNet.uav[27] simulationTime 259200
scalar OsgEarthNet.uav[28] utilizationSecMission 5098.2825183445
scalar OsgEarthNet.uav[28] utilizationSecMaintenance 2758.3924815152
scalar OsgEarthNet.uav[28] utilizationSecCharge 29090
scalar OsgEarthNet.uav[28] utilizationSecIdle 222253.32400014
scalar OsgEarthNet.uav[28] utilizationEnergyMission 23673.694259644
scalar OsgEarthNet.uav[28] utilizationEnergyMaintenance 12970.172740936
scalar OsgEarthNet.uav[28] utilizationEnergyCharge 36541.455078125
scalar OsgEarthNet.uav[28] utilizationEnergyOverdrawMission 0
scalar OsgEarthNet.uav[28] utilizationEnergyOverdrawMaintenance 0
scalar OsgEarthNet.uav[28] utilizationCountMissions 8
scalar OsgEarthNet.uav[28] utilizationCountManeuversMission 80
scalar OsgEarthNet.uav[28] utilizationCountManeuversMaintenance 16
scalar OsgEarthNet.uav[28] utilizationCountChargeState 8
scalar OsgEarthNet.uav[28] utilizationCountOverdrawnAfterMission 0
scalar OsgEarthNet.uav[28] utilizationCountIdleState 9
scalar OsgEarthNet.uav[28] utilizationFail 0
scalar OsgEarthNet.uav[28] simulationTime 259200
scalar OsgEarthNet.uav[29] utilizationSecMission 650.68693590098
scalar OsgEarthNet.uav[29] utilizationSecMaintenance 350.31285707965
scalar OsgEarthNet.uav[29] utilizationSecCharge 3720
scalar OsgEarthNet.uav[29] utilizationSecIdle 254478.99920702
scalar OsgEarthNet.uav[29] utilizationEnergyMission 3086.6431884766
scalar OsgEarthNet.uav[29] utilizationEnergyMaintenance 1588.7195358276
scalar OsgEarthNet.uav[29] utilizationEnergyCharge 4675.3618164062
scalar OsgEarthNet.uav[29] utilizationEnergyOverdrawMission 0
scalar OsgEarthNet.uav[29] utilizationEnergyOverdrawMaintenance 0
scalar OsgEarthNet.uav[29] utilizationCountMissions 1
scalar OsgEarthNet.uav[29] utilizationCountManeuversMission 9
scalar OsgEarthNet.uav[29] utilizationCountManeuversMaintenance 2
scalar OsgEarthNet.uav[29] utilizationCountChargeState 1
scalar OsgEarthNet.uav[29] utilizationCountOverdrawnAfterMission 0
scalar OsgEarthNet.uav[29] utilizationCountIdleState 2
scalar OsgEarthNet.uav[29] utilizationFail 0
scalar OsgEarthNet.uav[29] simulationTime 259200
scalar OsgEarthNet.uav[30] utilizationSecMission 29552.443444547
scalar OsgEarthNet.uav[30] utilizationSecMaintenance 16795.732820646
scalar OsgEarthNet.uav[30] utilizationSecCharge 167350
scalar OsgEarthNet.uav[30] utilizationSecIdle 45501.822734807
scalar OsgEarthNet.uav[30] utilizationEnergyMission 136062.94360668
scalar OsgEarthNet.uav[30] utilizationEnergyMaintenance 76136.034706116
scalar OsgEarthNet.uav[30] utilizationEnergyCharge 209799.63354492
scalar OsgEarthNet.uav[30] utilizationEnergyOverdrawMission 0
scalar OsgEarthNet.uav[30] utilizationEnergyOverdrawMaintenance 0
scalar OsgEarthNet.uav[30] utilizationCountMissions 46
scalar OsgEarthNet.uav[30] utilizationCountManeuversMission 479
scalar OsgEarthNet.uav[30] utilizationCountManeuversMaintenance 93
scalar OsgEarthNet.uav[30] utilizationCountChargeState 46
scalar OsgEarthNet.uav[30] utilizationCountOverdrawnAfterMission 0
scalar OsgEarthNet.uav[30] utilizationCountIdleState 47
scalar OsgEarthNet.uav[30] utilizationFail 0
scalar OsgEarthNet.uav[30] simulationTime 259200
scalar OsgEarthNet.uav[31] utilizationSecMission 25375.364997873
scalar OsgEarthNet.uav[31] utilizationSecMaintenance 17216.248741053
scalar OsgEarthNet.uav[31] utilizationSecCharge 155924.62626042
scalar OsgEarthNet.uav[31] utilizationSecIdle 60683.75900066
scalar OsgEarthNet.uav[31] utilizationEnergyMission 117262.70120239
scalar OsgEarthNet.uav[31] utilizationEnergyMaintenance 80213.880661011
scalar OsgEarthNet.uav[31] utilizationEnergyCharge 196812.79931641
scalar OsgEarthNet.uav[31] utilizationEnergyOverdrawMission 0
scalar OsgEarthNet.uav[31] utilizationEnergyOverdrawMaintenance 0
scalar OsgEarthNet.uav[31] utilizationCountMissions 43
scalar OsgEarthNet.uav[31] utilizationCountManeuversMission 416
scalar OsgEarthNet.uav[31] utilizationCountManeuversMaintenance 86
scalar OsgEarthNet.uav[31] utilizationCountChargeState 43
scalar OsgEarthNet.uav[31] utilizationCountOverdrawnAfterMission 0
scalar OsgEarthNet.uav[31] utilizationCountIdleState 43
scalar OsgEarthNet.uav[31] utilizationFail 0
scalar OsgEarthNet.uav[31] simulationTime 259200
scalar OsgEarthNet.uav[32] utilizationSecMission 26743.198214911
scalar OsgEarthNet.uav[32] utilizationSecMaintenance 16017.610428905
scalar OsgEarthNet.uav[32] utilizationSecCharge 156447.7918718
scalar OsgEarthNet.uav[32] utilizationSecIdle 59991.398484386
scalar OsgEarthNet.uav[32] utilizationEnergyMission 123507.87250519
scalar OsgEarthNet.uav[32] utilizationEnergyMaintenance 75028.327224731
scalar OsgEarthNet.uav[32] utilizationEnergyCharge 197779.47436523
scalar OsgEarthNet.uav[32] utilizationEnergyOverdrawMission 0
scalar OsgEarthNet.uav[32] utilizationEnergyOverdrawMaintenance 0
scalar OsgEarthNet.uav[32] utilizationCountMissions 43
scalar OsgEarthNet.uav[32] utilizationCountManeuversMission 439
scalar OsgEarthNet.uav[32] utilizationCountManeuversMaintenance 86
scalar OsgEarthNet.uav[32] utilizationCountChargeState 43
scalar OsgEarthNet.uav[32] utilizationCountOverdrawnAfterMission 0
scalar OsgEarthNet.uav[32] utilizationCountIdleState 43
scalar OsgEarthNet.uav[32] utilizationFail 0
scalar OsgEarthNet.uav[32] simulationTime 259200
scalar OsgEarthNet.uav[33] utilizationSecMission 623.68863475643
scalar OsgEarthNet.uav[33] utilizationSecMaintenance 394.94199877579
scalar OsgEarthNet.uav[33] utilizationSecCharge 3750
scalar OsgEarthNet.uav[33] utilizationSecIdle 254431.36836647
scalar OsgEarthNet.uav[33] utilizationEnergyMission 2879.3434906006
scalar OsgEarthNet.uav[33] utilizationEnergyMaintenance 1852.3428573608
scalar OsgEarthNet.uav[33] utilizationEnergyCharge 4778.6591796875
scalar OsgEarthNet.uav[33] utilizationEnergyOverdrawMission 0
scalar OsgEarthNet.uav[33] utilizationEnergyOverdrawMaintenance 0
scalar OsgEarthNet.uav[33] utilizationCountMissions 1
scalar OsgEarthNet.uav[33] utilizationCountManeuversMission 10
scalar OsgEarthNet.uav[33] utilizationCountManeuversMaintenance 2
scalar OsgEarthNet.uav[33] utilizationCountChargeState 1
scalar OsgEarthNet.uav[33] utilizationCountOverdrawnAfterMission 0
scalar OsgEarthNet.uav[33] utilizationCountIdleState 2
scalar OsgEarthNet.uav[33] utilizationFail 0
scalar OsgEarthNet.uav[33] simulationTime 259200
scalar OsgEarthNet.uav[34] utilizationSecMission 30150.402274239
scalar OsgEarthNet.uav[34] utilizationSecMaintenance 18982.741280365
scalar OsgEarthNet.uav[34] utilizationSecCharge 178244.8554454
scalar OsgEarthNet.uav[34] utilizationSecIdle 31822
scalar OsgEarthNet.uav[34] utilizationEnergyMission 139808.41275787
scalar OsgEarthNet.uav[34] utilizationEnergyMaintenance 87834.563053131
scalar OsgEarthNet.uav[34] utilizationEnergyCharge 223546.27996826
scalar OsgEarthNet.uav[34] utilizationEnergyOverdrawMission 0
scalar OsgEarthNet.uav[34] utilizationEnergyOverdrawMaintenance 0
scalar OsgEarthNet.uav[34] utilizationCountMissions 50
scalar OsgEarthNet.uav[34] utilizationCountManeuversMission 492
scalar OsgEarthNet.uav[34] utilizationCountManeuversMaintenance 99
scalar OsgEarthNet.uav[34] utilizationCountChargeState 50
scalar OsgEarthNet.uav[34] utilizationCountOverdrawnAfterMission 0
scalar OsgEarthNet.uav[34] utilizationCountIdleState 50
scalar OsgEarthNet.uav[34] utilizationFail 0
scalar OsgEarthNet.uav[34] simulationTime 259200
scalar OsgEarthNet.uav[35] utilizationSecMission 28859.24329567
scalar OsgEarthNet.uav[35] utilizationSecMaintenance 19310.64792279
scalar OsgEarthNet.uav[35] utilizationSecCharge 175420.88816762
scalar OsgEarthNet.uav[35] utilizationSecIdle 35609.219613916
scalar OsgEarthNet.uav[35] utilizationEnergyMission 133597.7013855
scalar OsgEarthNet.uav[35] utilizationEnergyMaintenance 89583.644603729
scalar OsgEarthNet.uav[35] utilizationEnergyCharge 220498.85644531
scalar OsgEarthNet.uav[35] utilizationEnergyOverdrawMission 0
scalar OsgEarthNet.uav[35] utilizationEnergyOverdrawMaintenance 0
scalar OsgEarthNet.uav[35] utilizationCountMissions 49
scalar OsgEarthNet.uav[35] utilizationCountManeuversMission 466
scalar OsgEarthNet.uav[35] utilizationCountManeuversMaintenance 98
scalar OsgEarthNet.uav[35] utilizationCountChargeState 49
scalar OsgEarthNet.uav[35] utilizationCountOverdrawnAfterMission 0
scalar OsgEarthNet.uav[35] utilizationCountIdleState 49
scalar OsgEarthNet.uav[35] utilizationFail 0
scalar OsgEarthNet.uav[35] simulationTime 259200
scalar OsgEarthNet.uav[36] utilizationSecMission 26054.462969981
scalar OsgEarthNet.uav[36] utilizationSecMaintenance 16455.127116097
scalar OsgEarthNet.uav[36] utilizationSecCharge 155897.33386869
scalar OsgEarthNet.uav[36] utilizationSecIdle 60793.07504523
scalar OsgEarthNet.uav[36] utilizationEnergyMission 120190.50667572
scalar OsgEarthNet.uav[36] utilizationEnergyMaintenance 77402.107814789
scalar OsgEarthNet.uav[36] utilizationEnergyCharge 196829.49560547
scalar OsgEarthNet.uav[36] utilizationEnergyOverdrawMission 0
scalar OsgEarthNet.uav[36] utilizationEnergyOverdrawMaintenance 0
scalar OsgEarthNet.uav[36] utilizationCountMissions 43
scalar OsgEarthNet.uav[36] utilizationCountManeuversMission 415
scalar OsgEarthNet.uav[36] utilizationCountManeuversMaintenance 86
scalar OsgEarthNet.uav[36] utilizationCountChargeState 43
scalar OsgEarthNet.uav[36] utilizationCountOverdrawnAfterMission 0
scalar OsgEarthNet.uav[36] utilizationCountIdleState 43
scalar OsgEarthNet.uav[36] utilizationFail 0
scalar OsgEarthNet.uav[36] simulationTime 259200
scalar OsgEarthNet.uav[37] utilizationSecMission 26605.09408521
scalar OsgEarthNet.uav[37] utilizationSecMaintenance 20438.120009228
scalar OsgEarthNet.uav[37] utilizationSecCharge 172107.40090098
scalar OsgEarthNet.uav[37] utilizationSecIdle 40049.384004586
scalar OsgEarthNet.uav[37] utilizationEnergyMission 123167.77667618
scalar OsgEarthNet.uav[37] utilizationEnergyMaintenance 95498.810184479
scalar OsgEarthNet.uav[37] utilizationEnergyCharge 216230.1027832
scalar OsgEarthNet.uav[37] utilizationEnergyOverdrawMission 0
scalar OsgEarthNet.uav[37] utilizationEnergyOverdrawMaintenance 0
scalar OsgEarthNet.uav[37] utilizationCountMissions 48
scalar OsgEarthNet.uav[37] utilizationCountManeuversMission 431
scalar OsgEarthNet.uav[37] utilizationCountManeuversMaintenance 96
scalar OsgEarthNet.uav[37] utilizationCountChargeState 48
scalar OsgEarthNet.uav[37] utilizationCountOverdrawnAfterMission 0
scalar OsgEarthNet.uav[37] utilizationCountIdleState 48
scalar OsgEarthNet.uav[37] utilizationFail 0
scalar OsgEarthNet.uav[37] simulationTime 259200
scalar OsgEarthNet.uav[38] utilizationSecMission 621.17604176187
scalar OsgEarthNet.uav[38] utilizationSecMaintenance 313.76167006775
scalar OsgEarthNet.uav[38] utilizationSecCharge 3620
scalar OsgEarthNet.uav[38] utilizationSecIdle 254645.06128817
scalar OsgEarthNet.uav[38] utilizationEnergyMission 2966.9445877075
scalar OsgEarthNet.uav[38] utilizationEnergyMaintenance 1603.0600700378
scalar OsgEarthNet.uav[38] utilizationEnergyCharge 4570.0029296875
scalar OsgEarthNet.uav[38] utilizationEnergyOverdrawMission 0
scalar OsgEarthNet.uav[38] utilizationEnergyOverdrawMaintenance 0
scalar OsgEarthNet.uav[38] utilizationCountMissions 1
scalar OsgEarthNet.uav[38] utilizationCountManeuversMission 12
scalar OsgEarthNet.uav[38] utilizationCountManeuversMaintenance 2
scalar OsgEarthNet.uav[38] utilizationCountChargeState 1
scalar OsgEarthNet.uav[38] utilizationCountOverdrawnAfterMission 0
scalar OsgEarthNet.uav[38] utilizationCountIdleState 2
scalar OsgEarthNet.uav[38] utilizationFail 0
scalar OsgEarthNet.uav[38] simulationTime 259200
scalar OsgEarthNet.uav[39] utilizationSecMission 28629.967272852
scalar OsgEarthNet.uav[39] utilizationSecMaintenance 19034.075904286
scalar OsgEarthNet.uav[39] utilizationSecCharge 175919.33714472
scalar OsgEarthNet.uav[39] utilizationSecIdle 35616.61867814
scalar OsgEarthNet.uav[39] utilizationEnergyMission 133186.65520477
scalar OsgEarthNet.uav[39] utilizationEnergyMaintenance 89410.957942963
scalar OsgEarthNet.uav[39] utilizationEnergyCharge 222433.73583984
scalar OsgEarthNet.uav[39] utilizationEnergyOverdrawMission 0
scalar OsgEarthNet.uav[39] utilizationEnergyOverdrawMaintenance 0
scalar OsgEarthNet.uav[39] utilizationCountMissions 48
scalar OsgEarthNet.uav[39] utilizationCountManeuversMission 465
scalar OsgEarthNet.uav[39] utilizationCountManeuversMaintenance 96
scalar OsgEarthNet.uav[39] utilizationCountChargeState 48
scalar OsgEarthNet.uav[39] utilizationCountOverdrawnAfterMission 0
scalar OsgEarthNet.uav[39] utilizationCountIdleState 48
scalar OsgEarthNet.uav[39] utilizationFail 0
scalar OsgEarthNet.uav[39] simulationTime 259200
scalar OsgEarthNet.uav[40] utilizationSecMission 240.79679628951
scalar OsgEarthNet.uav[40] utilizationSecMaintenance 833.48520695637
scalar OsgEarthNet.uav[40] utilizationSecCharge 3950
scalar OsgEarthNet.uav[40] utilizationSecIdle 254175.71699675
scalar OsgEarthNet.uav[40] utilizationEnergyMission 1137.5039520264
scalar OsgEarthNet.uav[40] utilizationEnergyMaintenance 4032.1894340515
scalar OsgEarthNet.uav[40] utilizationEnergyCharge 5169.6958007812
scalar OsgEarthNet.uav[40] utilizationEnergyOverdrawMission 0
scalar OsgEarthNet.uav[40] utilizationEnergyOverdrawMaintenance 0
scalar OsgEarthNet.uav[40] utilizationCountMissions 1
scalar OsgEarthNet.uav[40] utilizationCountManeuversMission 5
scalar OsgEarthNet.uav[40] utilizationCountManeuversMaintenance 2
scalar OsgEarthNet.uav[40] utilizationCountChargeState 1
scalar OsgEarthNet.uav[40] utilizationCountOverdrawnAfterMission 0
scalar OsgEarthNet.uav[40] utilizationCountIdleState 2
scalar OsgEarthNet.uav[40] utilizationFail 0
scalar OsgEarthNet.uav[40] simulationTime 259200
scalar OsgEarthNet.uav[41] utilizationSecMission 15958.101959218
scalar OsgEarthNet.uav[41] utilizationSecMaintenance 11143.924115911
scalar OsgEarthNet.uav[41] utilizationSecCharge 98340
scalar OsgEarthNet.uav[41] utilizationSecIdle 133757.97292487
scalar OsgEarthNet.uav[41] utilizationEnergyMission 73058.944836386
scalar OsgEarthNet.uav[41] utilizationEnergyMaintenance 51753.128780365
scalar OsgEarthNet.uav[41] utilizationEnergyCharge 123588.50830078
scalar OsgEarthNet.uav[41] utilizationEnergyOverdrawMission 0
scalar OsgEarthNet.uav[41] utilizationEnergyOverdrawMaintenance 0
scalar OsgEarthNet.uav[41] utilizationCountMissions 27
scalar OsgEarthNet.uav[41] utilizationCountManeuversMission 261
scalar OsgEarthNet.uav[41] utilizationCountManeuversMaintenance 55
scalar OsgEarthNet.uav[41] utilizationCountChargeState 27
scalar OsgEarthNet.uav[41] utilizationCountOverdrawnAfterMission 0
scalar OsgEarthNet.uav[41] utilizationCountIdleState 28
scalar OsgEarthNet.uav[41] utilizationFail 0
scalar OsgEarthNet.uav[41] simulationTime 259200
scalar OsgEarthNet.uav[42] utilizationSecMission 1619.4632176477
scalar OsgEarthNet.uav[42] utilizationSecMaintenance 1329.698337795
scalar OsgEarthNet.uav[42] utilizationSecCharge 10890
scalar OsgEarthNet.uav[42] utilizationSecIdle 245360.83744456
scalar OsgEarthNet.uav[42] utilizationEnergyMission 7489.7575912476
scalar OsgEarthNet.uav[42] utilizationEnergyMaintenance 6131.452457428
scalar OsgEarthNet.uav[42] utilizationEnergyCharge 13621.215332031
scalar OsgEarthNet.uav[42] utilizationEnergyOverdrawMission 0
scalar OsgEarthNet.uav[42] utilizationEnergyOverdrawMaintenance 0
scalar OsgEarthNet.uav[42] utilizationCountMissions 3
scalar OsgEarthNet.uav[42] utilizationCountManeuversMission 30
scalar OsgEarthNet.uav[42] utilizationCountManeuversMaintenance 6
scalar OsgEarthNet.uav[42] utilizationCountChargeState 3
scalar OsgEarthNet.uav[42] utilizationCountOverdrawnAfterMission 0
scalar OsgEarthNet.uav[42] utilizationCountIdleState 4
scalar OsgEarthNet.uav[42] utilizationFail 0
scalar OsgEarthNet.uav[42] simulationTime 259200
scalar OsgEarthNet.uav[43] utilizationSecMission 27833.241579732
scalar OsgEarthNet.uav[43] utilizationSecMaintenance 19057.071762309
scalar OsgEarthNet.uav[43] utilizationSecCharge 172140
scalar OsgEarthNet.uav[43] utilizationSecIdle 40169.685657959
scalar OsgEarthNet.uav[43] utilizationEnergyMission 127614.23900604
scalar OsgEarthNet.uav[43] utilizationEnergyMaintenance 88230.189544678
scalar OsgEarthNet.uav[43] utilizationEnergyCharge 216185.81616211
scalar OsgEarthNet.uav[43] utilizationEnergyOverdrawMission 0
scalar OsgEarthNet.uav[43] utilizationEnergyOverdrawMaintenance 0
scalar OsgEarthNet.uav[43] utilizationCountMissions 47
scalar OsgEarthNet.uav[43] utilizationCountManeuversMission 452
scalar OsgEarthNet.uav[43] utilizationCountManeuversMaintenance 94
scalar OsgEarthNet.uav[43] utilizationCountChargeState 47
scalar OsgEarthNet.uav[43] utilizationCountOverdrawnAfterMission 0
scalar OsgEarthNet.uav[43] utilizationCountIdleState 48
scalar OsgEarthNet.uav[43] utilizationFail 0
scalar OsgEarthNet.uav[43] simulationTime 259200
scalar OsgEarthNet.uav[44] utilizationSecMission 21949.92919609
scalar OsgEarthNet.uav[44] utilizationSecMaintenance 17892.190123888
scalar OsgEarthNet.uav[44] utilizationSecCharge 145715.15820041
scalar OsgEarthNet.uav[44] utilizationSecIdle 73642.721479611
scalar OsgEarthNet.uav[44] utilizationEnergyMission 101299.18378448
scalar OsgEarthNet.uav[44] utilizationEnergyMaintenance 83679.998062134
scalar OsgEarthNet.uav[44] utilizationEnergyCharge 182409.6550293
scalar OsgEarthNet.uav[44] utilizationEnergyOverdrawMission 0
scalar OsgEarthNet.uav[44] utilizationEnergyOverdrawMaintenance 0
scalar OsgEarthNet.uav[44] utilizationCountMissions 41
scalar OsgEarthNet.uav[44] utilizationCountManeuversMission 366
scalar OsgEarthNet.uav[44] utilizationCountManeuversMaintenance 82
scalar OsgEarthNet.uav[44] utilizationCountChargeState 41
scalar OsgEarthNet.uav[44] utilizationCountOverdrawnAfterMission 0
scalar OsgEarthNet.uav[44] utilizationCountIdleState 41
scalar OsgEarthNet.uav[44] utilizationFail 0
scalar OsgEarthNet.uav[44] simulationTime 259200
scalar OsgEarthNet.uav[45] utilizationSecMission 15777.528115007
scalar OsgEarthNet.uav[45] utilizationSecMaintenance 12071.579331046
scalar OsgEarthNet.uav[45] utilizationSecCharge 102690
scalar OsgEarthNet.uav[45] utilizationSecIdle 128660.89155395
scalar OsgEarthNet.uav[45] utilizationEnergyMission 73276.317115784
scalar OsgEarthNet.uav[45] utilizationEnergyMaintenance 55555.867313385
scalar OsgEarthNet.uav[45] utilizationEnergyCharge 129019.9074707
scalar OsgEarthNet.uav[45] utilizationEnergyOverdrawMission 0
scalar OsgEarthNet.uav[45] utilizationEnergyOverdrawMaintenance 0
scalar OsgEarthNet.uav[45] utilizationCountMissions 28
scalar OsgEarthNet.uav[45] utilizationCountManeuversMission 263
scalar OsgEarthNet.uav[45] utilizationCountManeuversMaintenance 56
scalar OsgEarthNet.uav[45] utilizationCountChargeState 28
scalar OsgEarthNet.uav[45] utilizationCountOverdrawnAfterMission 0
scalar OsgEarthNet.uav[45] utilizationCountIdleState 29
scalar OsgEarthNet.uav[45] utilizationFail 0
scalar OsgEarthNet.uav[45] simulationTime 259200
scalar OsgEarthNet.uav[46] utilizationSecMission 28334.699873791
scalar OsgEarthNet.uav[46] utilizationSecMaintenance 16244.374078571
scalar OsgEarthNet.uav[46] utilizationSecCharge 163460
scalar OsgEarthNet.uav[46] utilizationSecIdle 51160.925047637
scalar OsgEarthNet.uav[46] utilizationEnergyMission 129845.61180115
scalar OsgEarthNet.uav[46] utilizationEnergyMaintenance 75201.736911774
scalar OsgEarthNet.uav[46] utilizationEnergyCharge 205468.03076172
scalar OsgEarthNet.uav[46] utilizationEnergyOverdrawMission 0
scalar OsgEarthNet.uav[46] utilizationEnergyOverdrawMaintenance 0
scalar OsgEarthNet.uav[46] utilizationCountMissions 45
scalar OsgEarthNet.uav[46] utilizationCountManeuversMission 450
scalar OsgEarthNet.uav[46] utilizationCountManeuversMaintenance 90
scalar OsgEarthNet.uav[46] utilizationCountChargeState 45
scalar OsgEarthNet.uav[46] utilizationCountOverdrawnAfterMission 0
scalar OsgEarthNet.uav[46] utilizationCountIdleState 46
scalar OsgEarthNet.uav[46] utilizationFail 0
scalar OsgEarthNet.uav[46] simulationTime 259200
scalar OsgEarthNet.uav[47] utilizationSecMission 5696.9451222714
scalar OsgEarthNet.uav[47] utilizationSecMaintenance 4581.7941155442
scalar OsgEarthNet.uav[47] utilizationSecCharge 37660
scalar OsgEarthNet.uav[47] utilizationSecIdle 211261.25976218
scalar OsgEarthNet.uav[47] utilizationEnergyMission 26748.609436035
scalar OsgEarthNet.uav[47] utilizationEnergyMaintenance 21196.214653015
scalar OsgEarthNet.uav[47] utilizationEnergyCharge 47843.369140625
scalar OsgEarthNet.uav[47] utilizationEnergyOverdrawMission 0
scalar OsgEarthNet.uav[47] utilizationEnergyOverdrawMaintenance 0
scalar OsgEarthNet.uav[47] utilizationCountMissions 10
scalar OsgEarthNet.uav[47] utilizationCountManeuversMission 95
scalar OsgEarthNet.uav[47] utilizationCountManeuversMaintenance 20
scalar OsgEarthNet.uav[47] utilizationCountChargeState 10
scalar OsgEarthNet.uav[47] utilizationCountOverdrawnAfterMission 0
scalar OsgEarthNet.uav[47] utilizationCountIdleState 11
scalar OsgEarthNet.uav[47] utilizationFail 0
scalar OsgEarthNet.uav[47] simulationTime 259200
scalar OsgEarthNet.uav[48] utilizationSecMission 27361.701946046
scalar OsgEarthNet.uav[48] utilizationSecMaintenance 16056.568333548
scalar OsgEarthNet.uav[48] utilizationSecCharge 159612.30337312
scalar OsgEarthNet.uav[48] utilizationSecIdle 56169.42534729
scalar OsgEarthNet.uav[48] utilizationEnergyMission 126432.81460571
scalar OsgEarthNet.uav[48] utilizationEnergyMaintenance 74700.47335434
scalar OsgEarthNet.uav[48] utilizationEnergyCharge 200483.78125
scalar OsgEarthNet.uav[48] utilizationEnergyOverdrawMission 0
scalar OsgEarthNet.uav[48] utilizationEnergyOverdrawMaintenance 0
scalar OsgEarthNet.uav[48] utilizationCountMissions 44
scalar OsgEarthNet.uav[48] utilizationCountManeuversMission 450
scalar OsgEarthNet.uav[48] utilizationCountManeuversMaintenance 88
scalar OsgEarthNet.uav[48] utilizationCountChargeState 44
scalar OsgEarthNet.uav[48] utilizationCountOverdrawnAfterMission 0
scalar OsgEarthNet.uav[48] utilizationCountIdleState 44
scalar OsgEarthNet.uav[48] utilizationFail 0
scalar OsgEarthNet.uav[48] simulationTime 259200
scalar OsgEarthNet.uav[49] utilizationSecMission 29157.936904625
scalar OsgEarthNet.uav[49] utilizationSecMaintenance 20739.106080932
scalar OsgEarthNet.uav[49] utilizationSecCharge 181090.95601444
scalar OsgEarthNet.uav[49] utilizationSecIdle 28212
scalar OsgEarthNet.uav[49] utilizationEnergyMission 134743.942276
scalar OsgEarthNet.uav[49] utilizationEnergyMaintenance 95893.404884338
scalar OsgEarthNet.uav[49] utilizationEnergyCharge 226780.53308105
scalar OsgEarthNet.uav[49] utilizationEnergyOverdrawMission 0
scalar OsgEarthNet.uav[49] utilizationEnergyOverdrawMaintenance 0
scalar OsgEarthNet.uav[49] utilizationCountMissions 51
scalar OsgEarthNet.uav[49] utilizationCountManeuversMission 476
scalar OsgEarthNet.uav[49] utilizationCountManeuversMaintenance 101
scalar OsgEarthNet.uav[49] utilizationCountChargeState 51
scalar OsgEarthNet.uav[49] utilizationCountOverdrawnAfterMission 0
scalar OsgEarthNet.uav[49] utilizationCountIdleState 49
scalar OsgEarthNet.uav[49] utilizationFail 0
scalar OsgEarthNet.uav[49] simulationTime 259200
scalar OsgEarthNet.uav[50] utilizationSecMission 3223.4189669022
scalar OsgEarthNet.uav[50] utilizationSecMaintenance 2582.6338662142
scalar OsgEarthNet.uav[50] utilizationSecCharge 21510
scalar OsgEarthNet.uav[50] utilizationSecIdle 231883.94616688
scalar OsgEarthNet.uav[50] utilizationEnergyMission 14840.40587616
scalar OsgEarthNet.uav[50] utilizationEnergyMaintenance 11907.958656311
scalar OsgEarthNet.uav[50] utilizationEnergyCharge 26911.177490234
scalar OsgEarthNet.uav[50] utilizationEnergyOverdrawMission 0
scalar OsgEarthNet.uav[50] utilizationEnergyOverdrawMaintenance 0
scalar OsgEarthNet.uav[50] utilizationCountMissions 6
scalar OsgEarthNet.uav[50] utilizationCountManeuversMission 53
scalar OsgEarthNet.uav[50] utilizationCountManeuversMaintenance 12
scalar OsgEarthNet.uav[50] utilizationCountChargeState 6
scalar OsgEarthNet.uav[50] utilizationCountOverdrawnAfterMission 0
scalar OsgEarthNet.uav[50] utilizationCountIdleState 7
scalar OsgEarthNet.uav[50] utilizationFail 0
scalar OsgEarthNet.uav[50] simulationTime 259200
scalar OsgEarthNet.uav[51] utilizationSecMission 15174.690566499
scalar OsgEarthNet.uav[51] utilizationSecMaintenance 8538.8462361431
scalar OsgEarthNet.uav[51] utilizationSecCharge 84670
scalar OsgEarthNet.uav[51] utilizationSecIdle 150816.46219736
scalar OsgEarthNet.uav[51] utilizationEnergyMission 69476.649329311
scalar OsgEarthNet.uav[51] utilizationEnergyMaintenance 39880.058670044
scalar OsgEarthNet.uav[51] utilizationEnergyCharge 106690.75732422
scalar OsgEarthNet.uav[51] utilizationEnergyOverdrawMission 0
scalar OsgEarthNet.uav[51] utilizationEnergyOverdrawMaintenance 0
scalar OsgEarthNet.uav[51] utilizationCountMissions 23
scalar OsgEarthNet.uav[51] utilizationCountManeuversMission 245
scalar OsgEarthNet.uav[51] utilizationCountManeuversMaintenance 47
scalar OsgEarthNet.uav[51] utilizationCountChargeState 23
scalar OsgEarthNet.uav[51] utilizationCountOverdrawnAfterMission 0
scalar OsgEarthNet.uav[51] utilizationCountIdleState 24
scalar OsgEarthNet.uav[51] utilizationFail 0
scalar OsgEarthNet.uav[51] simulationTime 259200
scalar OsgEarthNet.uav[52] utilizationSecMission 12042.119241892
scalar OsgEarthNet.uav[52] utilizationSecMaintenance 7095.2920102322
scalar OsgEarthNet.uav[52] utilizationSecCharge 70020
scalar OsgEarthNet.uav[52] utilizationSecIdle 170042.58774788
scalar OsgEarthNet.uav[52] utilizationEnergyMission 55316.034667969
scalar OsgEarthNet.uav[52] utilizationEnergyMaintenance 33631.772121429
scalar OsgEarthNet.uav[52] utilizationEnergyCharge 88606.52734375
scalar OsgEarthNet.uav[52] utilizationEnergyOverdrawMission 0
scalar OsgEarthNet.uav[52] utilizationEnergyOverdrawMaintenance 0
scalar OsgEarthNet.uav[52] utilizationCountMissions 19
scalar OsgEarthNet.uav[52] utilizationCountManeuversMission 196
scalar OsgEarthNet.uav[52] utilizationCountManeuversMaintenance 38
scalar OsgEarthNet.uav[52] utilizationCountChargeState 19
scalar OsgEarthNet.uav[52] utilizationCountOverdrawnAfterMission 0
scalar OsgEarthNet.uav[52] utilizationCountIdleState 19
scalar OsgEarthNet.uav[52] utilizationFail 0
scalar OsgEarthNet.uav[52] simulationTime 259200
scalar OsgEarthNet.uav[53] utilizationSecMission 17235.17367865
scalar OsgEarthNet.uav[53] utilizationSecMaintenance 13426.481928024
scalar OsgEarthNet.uav[53] utilizationSecCharge 112440
scalar OsgEarthNet.uav[53] utilizationSecIdle 116098.34339333
scalar OsgEarthNet.uav[53] utilizationEnergyMission 79598.251457214
scalar OsgEarthNet.uav[53] utilizationEnergyMaintenance 61820.296173096
scalar OsgEarthNet.uav[53] utilizationEnergyCharge 141130.46704102
scalar OsgEarthNet.uav[53] utilizationEnergyOverdrawMission 0
scalar OsgEarthNet.uav[53] utilizationEnergyOverdrawMaintenance 0
scalar OsgEarthNet.uav[53] utilizationCountMissions 31
scalar OsgEarthNet.uav[53] utilizationCountManeuversMission 285
scalar OsgEarthNet.uav[53] utilizationCountManeuversMaintenance 62
scalar OsgEarthNet.uav[53] utilizationCountChargeState 31
scalar OsgEarthNet.uav[53] utilizationCountOverdrawnAfterMission 0
scalar OsgEarthNet.uav[53] utilizationCountIdleState 30
scalar OsgEarthNet.uav[53] utilizationFail 0
scalar OsgEarthNet.uav[53] simulationTime 259200
scalar OsgEarthNet.uav[54] utilizationSecMission 24569.671678777
scalar OsgEarthNet.uav[54] utilizationSecMaintenance 15899.042181221
scalar OsgEarthNet.uav[54] utilizationSecCharge 149300
scalar OsgEarthNet.uav[54] utilizationSecIdle 69431.285140001
scalar OsgEarthNet.uav[54] utilizationEnergyMission 113842.47698975
scalar OsgEarthNet.uav[54] utilizationEnergyMaintenance 73682.102016449
scalar OsgEarthNet.uav[54] utilizationEnergyCharge 187494.53808594
scalar OsgEarthNet.uav[54] utilizationEnergyOverdrawMission 0
scalar OsgEarthNet.uav[54] utilizationEnergyOverdrawMaintenance 0
scalar OsgEarthNet.uav[54] utilizationCountMissions 41
scalar OsgEarthNet.uav[54] utilizationCountManeuversMission 408
scalar OsgEarthNet.uav[54] utilizationCountManeuversMaintenance 82
scalar OsgEarthNet.uav[54] utilizationCountChargeState 41
scalar OsgEarthNet.uav[54] utilizationCountOverdrawnAfterMission 0
scalar OsgEarthNet.uav[54] utilizationCountIdleState 40
scalar OsgEarthNet.uav[54] utilizationFail 0
scalar OsgEarthNet.uav[54] simulationTime 259200
scalar OsgEarthNet.uav[55] utilizationSecMission 24807.277319789
scalar OsgEarthNet.uav[55] utilizationSecMaintenance 14620.677016841
scalar OsgEarthNet.uav[55] utilizationSecCharge 145890
scalar OsgEarthNet.uav[55] utilizationSecIdle 73882.044663369
scalar OsgEarthNet.uav[55] utilizationEnergyMission 115408.58660126
scalar OsgEarthNet.uav[55] utilizationEnergyMaintenance 67409.213939667
scalar OsgEarthNet.uav[55] utilizationEnergyCharge 183268.61132812
scalar OsgEarthNet.uav[55] utilizationEnergyOverdrawMission 0
scalar OsgEarthNet.uav[55] utilizationEnergyOverdrawMaintenance 0
scalar OsgEarthNet.uav[55] utilizationCountMissions 40
scalar OsgEarthNet.uav[55] utilizationCountManeuversMission 408
scalar OsgEarthNet.uav[55] utilizationCountManeuversMaintenance 80
scalar OsgEarthNet.uav[55] utilizationCountChargeState 40
scalar OsgEarthNet.uav[55] utilizationCountOverdrawnAfterMission 0
scalar OsgEarthNet.uav[55] utilizationCountIdleState 40
scalar OsgEarthNet.uav[55] utilizationFail 0
scalar OsgEarthNet.uav[55] simulationTime 259200
scalar OsgEarthNet.uav[56] utilizationSecMission 20922.219943343
scalar OsgEarthNet.uav[56] utilizationSecMaintenance 13307.226630519
scalar OsgEarthNet.uav[56] utilizationSecCharge 127430
scalar OsgEarthNet.uav[56] utilizationSecIdle 97540.552426138
scalar OsgEarthNet.uav[56] utilizationEnergyMission 97398.249191284
scalar OsgEarthNet.uav[56] utilizationEnergyMaintenance 62526.001110077
scalar OsgEarthNet.uav[56] utilizationEnergyCharge 160133.7956543
scalar OsgEarthNet.uav[56] utilizationEnergyOverdrawMission 0
scalar OsgEarthNet.uav[56] utilizationEnergyOverdrawMaintenance 0
scalar OsgEarthNet.uav[56] utilizationCountMissions 35
scalar OsgEarthNet.uav[56] utilizationCountManeuversMission 344
scalar OsgEarthNet.uav[56] utilizationCountManeuversMaintenance 70
scalar OsgEarthNet.uav[56] utilizationCountChargeState 35
scalar OsgEarthNet.uav[56] utilizationCountOverdrawnAfterMission 0
scalar OsgEarthNet.uav[56] utilizationCountIdleState 35
scalar OsgEarthNet.uav[56] utilizationFail 0
scalar OsgEarthNet.uav[56] simulationTime 259200
scalar OsgEarthNet.uav[57] utilizationSecMission 28374.51644719
scalar OsgEarthNet.uav[57] utilizationSecMaintenance 20230.503309013
scalar OsgEarthNet.uav[57] utilizationSecCharge 177396.62663653
scalar OsgEarthNet.uav[57] utilizationSecIdle 33198.352607263
scalar OsgEarthNet.uav[57] utilizationEnergyMission 131109.9577179
scalar OsgEarthNet.uav[57] utilizationEnergyMaintenance 93981.485603333
scalar OsgEarthNet.uav[57] utilizationEnergyCharge 223823.77514648
scalar OsgEarthNet.uav[57] utilizationEnergyOverdrawMission 0
scalar OsgEarthNet.uav[57] utilizationEnergyOverdrawMaintenance 0
scalar OsgEarthNet.uav[57] utilizationCountMissions 49
scalar OsgEarthNet.uav[57] utilizationCountManeuversMission 456
scalar OsgEarthNet.uav[57] utilizationCountManeuversMaintenance 98
scalar OsgEarthNet.uav[57] utilizationCountChargeState 49
scalar OsgEarthNet.uav[57] utilizationCountOverdrawnAfterMission 0
scalar OsgEarthNet.uav[57] utilizationCountIdleState 48
scalar OsgEarthNet.uav[57] utilizationFail 0
scalar OsgEarthNet.uav[57] simulationTime 259200
scalar OsgEarthNet.uav[58] utilizationSecMission 20207.398974242
scalar OsgEarthNet.uav[58] utilizationSecMaintenance 20769.957876959
scalar OsgEarthNet.uav[58] utilizationSecCharge 151620
scalar OsgEarthNet.uav[58] utilizationSecIdle 66602.642148799
scalar OsgEarthNet.uav[58] utilizationEnergyMission 93685.886695862
scalar OsgEarthNet.uav[58] utilizationEnergyMaintenance 96734.139110565
scalar OsgEarthNet.uav[58] utilizationEnergyCharge 190405.22436523
scalar OsgEarthNet.uav[58] utilizationEnergyOverdrawMission 0
scalar OsgEarthNet.uav[58] utilizationEnergyOverdrawMaintenance 0
scalar OsgEarthNet.uav[58] utilizationCountMissions 42
scalar OsgEarthNet.uav[58] utilizationCountManeuversMission 337
scalar OsgEarthNet.uav[58] utilizationCountManeuversMaintenance 84
scalar OsgEarthNet.uav[58] utilizationCountChargeState 42
scalar OsgEarthNet.uav[58] utilizationCountOverdrawnAfterMission 0
scalar OsgEarthNet.uav[58] utilizationCountIdleState 39
scalar OsgEarthNet.uav[58] utilizationFail 0
scalar OsgEarthNet.uav[58] simulationTime 259200
scalar OsgEarthNet.uav[59] utilizationSecMission 24959.460988311
scalar OsgEarthNet.uav[59] utilizationSecMaintenance 19084.798092359
scalar OsgEarthNet.uav[59] utilizationSecCharge 157924.54333973
scalar OsgEarthNet.uav[59] utilizationSecIdle 57231.196579595
scalar OsgEarthNet.uav[59] utilizationEnergyMission 115915.48872375
scalar OsgEarthNet.uav[59] utilizationEnergyMaintenance 87321.866550446
scalar OsgEarthNet.uav[59] utilizationEnergyCharge 199633.33117676
scalar OsgEarthNet.uav[59] utilizationEnergyOverdrawMission 0
scalar OsgEarthNet.uav[59] utilizationEnergyOverdrawMaintenance 0
scalar OsgEarthNet.uav[59] utilizationCountMissions 44
scalar OsgEarthNet.uav[59] utilizationCountManeuversMission 415
scalar OsgEarthNet.uav[59] utilizationCountManeuversMaintenance 88
scalar OsgEarthNet.uav[59] utilizationCountChargeState 44
scalar OsgEarthNet.uav[59] utilizationCountOverdrawnAfterMission 0
scalar OsgEarthNet.uav[59] utilizationCountIdleState 41
scalar OsgEarthNet.uav[59] utilizationFail 0
scalar OsgEarthNet.uav[59] simulationTime 259200
scalar OsgEarthNet.uav[60] utilizationSecMission 27534.226107508
scalar OsgEarthNet.uav[60] utilizationSecMaintenance 20046.38940611
scalar OsgEarthNet.uav[60] utilizationSecCharge 172565.05613073
scalar OsgEarthNet.uav[60] utilizationSecIdle 39054.327355653
scalar OsgEarthNet.uav[60] utilizationEnergyMission 127507.86273956
scalar OsgEarthNet.uav[60] utilizationEnergyMaintenance 92123.551422119
scalar OsgEarthNet.uav[60] utilizationEnergyCharge 218203.39135742
scalar OsgEarthNet.uav[60] utilizationEnergyOverdrawMission 0
scalar OsgEarthNet.uav[60] utilizationEnergyOverdrawMaintenance 0
scalar OsgEarthNet.uav[60] utilizationCountMissions 48
scalar OsgEarthNet.uav[60] utilizationCountManeuversMission 436
scalar OsgEarthNet.uav[60] utilizationCountManeuversMaintenance 96
scalar OsgEarthNet.uav[60] utilizationCountChargeState 48
scalar OsgEarthNet.uav[60] utilizationCountOverdrawnAfterMission 0
scalar OsgEarthNet.uav[60] utilizationCountIdleState 43
scalar OsgEarthNet.uav[60] utilizationFail 0
scalar OsgEarthNet.uav[60] simulationTime 259200
scalar OsgEarthNet.uav[61] utilizationSecMission 28210.678566828
scalar OsgEarthNet.uav[61] utilizationSecMaintenance 18661.378900879
scalar OsgEarthNet.uav[61] utilizationSecCharge 169802.51685598
scalar OsgEarthNet.uav[61] utilizationSecIdle 42525.424676309
scalar OsgEarthNet.uav[61] utilizationEnergyMission 128565.48325729
scalar OsgEarthNet.uav[61] utilizationEnergyMaintenance 87320.477600098
scalar OsgEarthNet.uav[61] utilizationEnergyCharge 214959.2487793
scalar OsgEarthNet.uav[61] utilizationEnergyOverdrawMission 0
scalar OsgEarthNet.uav[61] utilizationEnergyOverdrawMaintenance 0
scalar OsgEarthNet.uav[61] utilizationCountMissions 47
scalar OsgEarthNet.uav[61] utilizationCountManeuversMission 461
scalar OsgEarthNet.uav[61] utilizationCountManeuversMaintenance 94
scalar OsgEarthNet.uav[61] utilizationCountChargeState 47
scalar OsgEarthNet.uav[61] utilizationCountOverdrawnAfterMission 0
scalar OsgEarthNet.uav[61] utilizationCountIdleState 41
scalar OsgEarthNet.uav[61] utilizationFail 0
scalar OsgEarthNet.uav[61] simulationTime 259200
scalar OsgEarthNet.uav[62] utilizationSecMission 29203.277993554
scalar OsgEarthNet.uav[62] utilizationSecMaintenance 20370.178437451
scalar OsgEarthNet.uav[62] utilizationSecCharge 181294.54256899
scalar OsgEarthNet.uav[62] utilizationSecIdle 28332
scalar OsgEarthNet.uav[62] utilizationEnergyMission 133895.98711514
scalar OsgEarthNet.uav[62] utilizationEnergyMaintenance 94348.856750488
scalar OsgEarthNet.uav[62] utilizationEnergyCharge 228537.38818359
scalar OsgEarthNet.uav[62] utilizationEnergyOverdrawMission 0
scalar OsgEarthNet.uav[62] utilizationEnergyOverdrawMaintenance 0
scalar OsgEarthNet.uav[62] utilizationCountMissions 50
scalar OsgEarthNet.uav[62] utilizationCountManeuversMission 469
scalar OsgEarthNet.uav[62] utilizationCountManeuversMaintenance 99
scalar OsgEarthNet.uav[62] utilizationCountChargeState 50
scalar OsgEarthNet.uav[62] utilizationCountOverdrawnAfterMission 0
scalar OsgEarthNet.uav[62] utilizationCountIdleState 47
scalar OsgEarthNet.uav[62] utilizationFail 0
scalar OsgEarthNet.uav[62] simulationTime 259200
scalar OsgEarthNet.uav[63] utilizationSecMission 26446.810776736
scalar OsgEarthNet.uav[63] utilizationSecMaintenance 21408.171860505
scalar OsgEarthNet.uav[63] utilizationSecCharge 176395.36168962
scalar OsgEarthNet.uav[63] utilizationSecIdle 34949.654673138
scalar OsgEarthNet.uav[63] utilizationEnergyMission 123224.66693878
scalar OsgEarthNet.uav[63] utilizationEnergyMaintenance 100299.0850029
scalar OsgEarthNet.uav[63] utilizationEnergyCharge 223292.74414062
scalar OsgEarthNet.uav[63] utilizationEnergyOverdrawMission 0
scalar OsgEarthNet.uav[63] utilizationEnergyOverdrawMaintenance 0
scalar OsgEarthNet.uav[63] utilizationCountMissions 49
scalar OsgEarthNet.uav[63] utilizationCountManeuversMission 429
scalar OsgEarthNet.uav[63] utilizationCountManeuversMaintenance 98
scalar OsgEarthNet.uav[63] utilizationCountChargeState 49
scalar OsgEarthNet.uav[63] utilizationCountOverdrawnAfterMission 0
scalar OsgEarthNet.uav[63] utilizationCountIdleState 45
scalar OsgEarthNet.uav[63] utilizationFail 0
scalar OsgEarthNet.uav[63] simulationTime 259200
scalar OsgEarthNet.uav[64] utilizationSecMission 29087.013942939
scalar OsgEarthNet.uav[64] utilizationSecMaintenance 19938.194659078
scalar OsgEarthNet.uav[64] utilizationSecCharge 179780
scalar OsgEarthNet.uav[64] utilizationSecIdle 30394.790397982
scalar OsgEarthNet.uav[64] utilizationEnergyMission 134522.78443909
scalar OsgEarthNet.uav[64] utilizationEnergyMaintenance 92199.024591578
scalar OsgEarthNet.uav[64] utilizationEnergyCharge 224700.92358398
scalar OsgEarthNet.uav[64] utilizationEnergyOverdrawMission 0
scalar OsgEarthNet.uav[64] utilizationEnergyOverdrawMaintenance 0
scalar OsgEarthNet.uav[64] utilizationCountMissions 50
scalar OsgEarthNet.uav[64] utilizationCountManeuversMission 478
scalar OsgEarthNet.uav[64] utilizationCountManeuversMaintenance 101
scalar OsgEarthNet.uav[64] utilizationCountChargeState 50
scalar OsgEarthNet.uav[64] utilizationCountOverdrawnAfterMission 0
scalar OsgEarthNet.uav[64] utilizationCountIdleState 48
scalar OsgEarthNet.uav[64] utilizationFail 0
scalar OsgEarthNet.uav[64] simulationTime 259200
scalar OsgEarthNet.uav[65] utilizationSecMission 29483.464725638
scalar OsgEarthNet.uav[65] utilizationSecMaintenance 22973.307438156
scalar OsgEarthNet.uav[65] utilizationSecCharge 188365.77657217
scalar OsgEarthNet.uav[65] utilizationSecIdle 18377.450264031
scalar OsgEarthNet.uav[65] utilizationEnergyMission 136917.55716705
scalar OsgEarthNet.uav[65] utilizationEnergyMaintenance 105559.32728958
scalar OsgEarthNet.uav[65] utilizationEnergyCharge 237950.57763672
scalar OsgEarthNet.uav[65] utilizationEnergyOverdrawMission 0
scalar OsgEarthNet.uav[65] utilizationEnergyOverdrawMaintenance 0
scalar OsgEarthNet.uav[65] utilizationCountMissions 53
scalar OsgEarthNet.uav[65] utilizationCountManeuversMission 491
scalar OsgEarthNet.uav[65] utilizationCountManeuversMaintenance 106
scalar OsgEarthNet.uav[65] utilizationCountChargeState 53
scalar OsgEarthNet.uav[65] utilizationCountOverdrawnAfterMission 0
scalar OsgEarthNet.uav[65] utilizationCountIdleState 43
scalar OsgEarthNet.uav[65] utilizationFail 0
scalar OsgEarthNet.uav[65] simulationTime 259200
scalar OsgEarthNet.uav[66] utilizationSecMission 27512.428770747
scalar OsgEarthNet.uav[66] utilizationSecMaintenance 23946.99980487
scalar OsgEarthNet.uav[66] utilizationSecCharge 187670
scalar OsgEarthNet.uav[66] utilizationSecIdle 20070.570424384
scalar OsgEarthNet.uav[66] utilizationEnergyMission 126789.59618378
scalar OsgEarthNet.uav[66] utilizationEnergyMaintenance 110873.75003756
scalar OsgEarthNet.uav[66] utilizationEnergyCharge 236936.84765625
scalar OsgEarthNet.uav[66] utilizationEnergyOverdrawMission 0
scalar OsgEarthNet.uav[66] utilizationEnergyOverdrawMaintenance 0
scalar OsgEarthNet.uav[66] utilizationCountMissions 52
scalar OsgEarthNet.uav[66] utilizationCountManeuversMission 456
scalar OsgEarthNet.uav[66] utilizationCountManeuversMaintenance 105
scalar OsgEarthNet.uav[66] utilizationCountChargeState 52
scalar OsgEarthNet.uav[66] utilizationCountOverdrawnAfterMission 0
scalar OsgEarthNet.uav[66] utilizationCountIdleState 40
scalar OsgEarthNet.uav[66] utilizationFail 0
scalar OsgEarthNet.uav[66] simulationTime 259200
scalar OsgEarthNet.uav[67] utilizationSecMission 28320.767598476
scalar OsgEarthNet.uav[67] utilizationSecMaintenance 23634.305560918
scalar OsgEarthNet.uav[67] utilizationSecCharge 187798.24503272
scalar OsgEarthNet.uav[67] utilizationSecIdle 19446.680807888
scalar OsgEarthNet.uav[67] utilizationEnergyMission 131628.42338181
scalar OsgEarthNet.uav[67] utilizationEnergyMaintenance 109241.45034409
scalar OsgEarthNet.uav[67] utilizationEnergyCharge 237739.54553223
scalar OsgEarthNet.uav[67] utilizationEnergyOverdrawMission 0
scalar OsgEarthNet.uav[67] utilizationEnergyOverdrawMaintenance 0
scalar OsgEarthNet.uav[67] utilizationCountMissions 53
scalar OsgEarthNet.uav[67] utilizationCountManeuversMission 467
scalar OsgEarthNet.uav[67] utilizationCountManeuversMaintenance 106
scalar OsgEarthNet.uav[67] utilizationCountChargeState 53
scalar OsgEarthNet.uav[67] utilizationCountOverdrawnAfterMission 0
scalar OsgEarthNet.uav[67] utilizationCountIdleState 37
scalar OsgEarthNet.uav[67] utilizationFail 0
scalar OsgEarthNet.uav[67] simulationTime 259200
scalar OsgEarthNet.uav[68] utilizationSecMission 28625.497981619
scalar OsgEarthNet.uav[68] utilizationSecMaintenance 23655.787571643
scalar OsgEarthNet.uav[68] utilizationSecCharge 188040
scalar OsgEarthNet.uav[68] utilizationSecIdle 18878.713446739
scalar OsgEarthNet.uav[68] utilizationEnergyMission 132203.38326645
scalar OsgEarthNet.uav[68] utilizationEnergyMaintenance 109331.90895393
scalar OsgEarthNet.uav[68] utilizationEnergyCharge 236974.39916992
scalar OsgEarthNet.uav[68] utilizationEnergyOverdrawMission 0
scalar OsgEarthNet.uav[68] utilizationEnergyOverdrawMaintenance 0
scalar OsgEarthNet.uav[68] utilizationCountMissions 54
scalar OsgEarthNet.uav[68] utilizationCountManeuversMission 461
scalar OsgEarthNet.uav[68] utilizationCountManeuversMaintenance 108
scalar OsgEarthNet.uav[68] utilizationCountChargeState 53
scalar OsgEarthNet.uav[68] utilizationCountOverdrawnAfterMission 0
scalar OsgEarthNet.uav[68] utilizationCountIdleState 39
scalar OsgEarthNet.uav[68] utilizationFail 0
scalar OsgEarthNet.uav[68] simulationTime 259200
scalar OsgEarthNet.uav[69] utilizationSecMission 29824.557053034
scalar OsgEarthNet.uav[69] utilizationSecMaintenance 22041.275757815
scalar OsgEarthNet.uav[69] utilizationSecCharge 186266.13831846
scalar OsgEarthNet.uav[69] utilizationSecIdle 21068.027870691
scalar OsgEarthNet.uav[69] utilizationEnergyMission 136728.51260376
scalar OsgEarthNet.uav[69] utilizationEnergyMaintenance 101931.34712219
scalar OsgEarthNet.uav[69] utilizationEnergyCharge 236072.02880859
scalar OsgEarthNet.uav[69] utilizationEnergyOverdrawMission 0
scalar OsgEarthNet.uav[69] utilizationEnergyOverdrawMaintenance 0
scalar OsgEarthNet.uav[69] utilizationCountMissions 52
scalar OsgEarthNet.uav[69] utilizationCountManeuversMission 478
scalar OsgEarthNet.uav[69] utilizationCountManeuversMaintenance 104
scalar OsgEarthNet.uav[69] utilizationCountChargeState 52
scalar OsgEarthNet.uav[69] utilizationCountOverdrawnAfterMission 0
scalar OsgEarthNet.uav[69] utilizationCountIdleState 39
scalar OsgEarthNet.uav[69] utilizationFail 0
scalar OsgEarthNet.uav[69] simulationTime 259200
scalar OsgEarthNet.cs[0] usedPower 2112679.1674431
scalar OsgEarthNet.cs[0] chargedPower 2112679.1674431
scalar OsgEarthNet.cs[0] chargedMobileNodes 444
scalar OsgEarthNet.cs[0] reservations 470
scalar OsgEarthNet.cs[1] usedPower 3005657.4230099
scalar OsgEarthNet.cs[1] chargedPower 3005657.4230099
scalar OsgEarthNet.cs[1] chargedMobileNodes 607
scalar OsgEarthNet.cs[1] reservations 649
scalar OsgEarthNet.cs[2] usedPower 4859103.9155014
scalar OsgEarthNet.cs[2] chargedPower 4859103.9155014
scalar OsgEarthNet.cs[2] chargedMobileNodes 1010
scalar OsgEarthNet.cs[2] reservations 1078

