version 2
run Szenario_Hotel_Gabelbach-104-20180710-04:39:21-28644
attr configname Szenario_Hotel_Gabelbach
attr datetime 20180710-04:39:21
attr experiment Szenario_Hotel_Gabelbach
attr inifile omnetpp.ini
attr iterationvars "$numUAVs=80, $replM=0"
attr iterationvarsf numUAVs=80,replM=0-
attr measurement "$numUAVs=80, $replM=0"
attr network OsgEarthNet
attr processid 28644
attr repetition 8
attr replication #8
attr resultdir results
attr runnumber 104
attr seedset 104
itervar numUAVs 80
itervar replM 0
param *.osgEarthScene.scene "\"Szenario_Hotel_Gabelbach.earth\""
param *.playgroundLatitude 50.6830269
param *.playgroundLongitude 10.8538055
param *.playgroundWidth 3500m
param *.playgroundHeight 3500m
param *.numCSs 3
param *.cs[0].posX 3537m
param *.cs[0].posY 965m
param *.cs[0].posZ 538m
param *.cs[1].posX 312m
param *.cs[1].posY 1262m
param *.cs[1].posZ 539m
param *.cs[2].posX 2185m
param *.cs[2].posY 3026m
param *.cs[2].posZ 777m
param *.cs[3].posX 10m
param *.cs[3].posY 2200m
param *.cs[3].posZ 560m
param *.cs[4].posX 750m
param *.cs[4].posY 200m
param *.cs[4].posZ 540m
param *.cs[5].posX 2450m
param *.cs[5].posY 180m
param *.cs[5].posZ 524m
param *.cs[6].posX 3140m
param *.cs[6].posY 1790m
param *.cs[6].posZ 606m
param *.numUAVs 80
param *.uav[*].replacementMethod 0
param *.*.timeStep 10s
param *.uav[*].commandPreviewCommandCount 20
param *.missionControl.missionFiles "\"missions\\\\Szenario_WB_Hotel_Gabelbach_Mission_Hotel.waypoints,missions\\\\Szenario_WB_Hotel_Gabelbach_Mission_Kickelhahn.waypoints,missions\\\\Szenario_WB_Hotel_Gabelbach_Mission_Ilmenau_Sportplatz.waypoints,missions\\\\Szenario_WB_Hotel_Gabelbach_Mission_Manebach_Mitte.waypoints,missions\\\\Szenario_WB_Hotel_Gabelbach_Mission_Manebach_Sued.waypoints\""
param *.missionControl.missionFiles "\"missions\\\\Szenario_WB_Hotel_Gabelbach_Mission_Hotel.waypoints,missions\\\\Szenario_WB_Hotel_Gabelbach_Mission_Kickelhahn.waypoints,missions\\\\Szenario_WB_Hotel_Gabelbach_Mission_Ilmenau_Sportplatz.waypoints,missions\\\\Szenario_WB_Hotel_Gabelbach_Mission_Manebach_Mitte.waypoints,missions\\\\Szenario_WB_Hotel_Gabelbach_Mission_Manebach_Sued.waypoints,missions\\\\Szenario_WB_Hotel_Gabelbach_Hover_HoheSchlaufe.waypoints,missions\\\\Szenario_WB_Hotel_Gabelbach_Hover_Kickelhahn.waypoints,missions\\\\Szenario_WB_Hotel_Gabelbach_Hover_Gabelbachskopf.waypoints,missions\\\\Szenario_WB_Hotel_Gabelbach_Hover_Dachskopf.waypoints\""
param *.uav[0].startX 3537m
param *.uav[0].startY 965m
param *.uav[0].startZ 539m
param *.uav[1].startX 312m
param *.uav[1].startY 1262m
param *.uav[1].startZ 540m
param *.uav[2].startX 2185m
param *.uav[2].startY 3026m
param *.uav[2].startZ 778m
param *.uav[3].startX 3537m
param *.uav[3].startY 965m
param *.uav[3].startZ 539m
param *.uav[4].startX 312m
param *.uav[4].startY 1262m
param *.uav[4].startZ 540m
param *.uav[5].startX 2185m
param *.uav[5].startY 3026m
param *.uav[5].startZ 778m
param *.uav[6].startX 3537m
param *.uav[6].startY 965m
param *.uav[6].startZ 539m
param *.uav[7].startX 312m
param *.uav[7].startY 1262m
param *.uav[7].startZ 540m
param *.uav[8].startX 2185m
param *.uav[8].startY 3026m
param *.uav[8].startZ 778m
param *.uav[9].startX 3537m
param *.uav[9].startY 965m
param *.uav[9].startZ 539m
param *.uav[10].startX 3537m
param *.uav[10].startY 965m
param *.uav[10].startZ 539m
param *.uav[11].startX 312m
param *.uav[11].startY 1262m
param *.uav[11].startZ 540m
param *.uav[12].startX 2185m
param *.uav[12].startY 3026m
param *.uav[12].startZ 778m
param *.uav[13].startX 3537m
param *.uav[13].startY 965m
param *.uav[13].startZ 539m
param *.uav[14].startX 312m
param *.uav[14].startY 1262m
param *.uav[14].startZ 540m
param *.uav[15].startX 2185m
param *.uav[15].startY 3026m
param *.uav[15].startZ 778m
param *.uav[16].startX 3537m
param *.uav[16].startY 965m
param *.uav[16].startZ 539m
param *.uav[17].startX 312m
param *.uav[17].startY 1262m
param *.uav[17].startZ 540m
param *.uav[18].startX 2185m
param *.uav[18].startY 3026m
param *.uav[18].startZ 778m
param *.uav[19].startX 3537m
param *.uav[19].startY 965m
param *.uav[19].startZ 539m
param *.uav[20].startX 3537m
param *.uav[20].startY 965m
param *.uav[20].startZ 539m
param *.uav[21].startX 312m
param *.uav[21].startY 1262m
param *.uav[21].startZ 540m
param *.uav[22].startX 2185m
param *.uav[22].startY 3026m
param *.uav[22].startZ 778m
param *.uav[23].startX 3537m
param *.uav[23].startY 965m
param *.uav[23].startZ 539m
param *.uav[24].startX 312m
param *.uav[24].startY 1262m
param *.uav[24].startZ 540m
param *.uav[25].startX 2185m
param *.uav[25].startY 3026m
param *.uav[25].startZ 778m
param *.uav[26].startX 3537m
param *.uav[26].startY 965m
param *.uav[26].startZ 539m
param *.uav[27].startX 312m
param *.uav[27].startY 1262m
param *.uav[27].startZ 540m
param *.uav[28].startX 2185m
param *.uav[28].startY 3026m
param *.uav[28].startZ 778m
param *.uav[29].startX 3537m
param *.uav[29].startY 965m
param *.uav[29].startZ 539m
param *.uav[30].startX 3537m
param *.uav[30].startY 965m
param *.uav[30].startZ 539m
param *.uav[31].startX 312m
param *.uav[31].startY 1262m
param *.uav[31].startZ 540m
param *.uav[32].startX 2185m
param *.uav[32].startY 3026m
param *.uav[32].startZ 778m
param *.uav[33].startX 3537m
param *.uav[33].startY 965m
param *.uav[33].startZ 539m
param *.uav[34].startX 312m
param *.uav[34].startY 1262m
param *.uav[34].startZ 540m
param *.uav[35].startX 2185m
param *.uav[35].startY 3026m
param *.uav[35].startZ 778m
param *.uav[36].startX 3537m
param *.uav[36].startY 965m
param *.uav[36].startZ 539m
param *.uav[37].startX 312m
param *.uav[37].startY 1262m
param *.uav[37].startZ 540m
param *.uav[38].startX 2185m
param *.uav[38].startY 3026m
param *.uav[38].startZ 778m
param *.uav[39].startX 3537m
param *.uav[39].startY 965m
param *.uav[39].startZ 539m
param *.uav[40].startX 3537m
param *.uav[40].startY 965m
param *.uav[40].startZ 539m
param *.uav[41].startX 312m
param *.uav[41].startY 1262m
param *.uav[41].startZ 540m
param *.uav[42].startX 2185m
param *.uav[42].startY 3026m
param *.uav[42].startZ 778m
param *.uav[43].startX 3537m
param *.uav[43].startY 965m
param *.uav[43].startZ 539m
param *.uav[44].startX 312m
param *.uav[44].startY 1262m
param *.uav[44].startZ 540m
param *.uav[45].startX 2185m
param *.uav[45].startY 3026m
param *.uav[45].startZ 778m
param *.uav[46].startX 3537m
param *.uav[46].startY 965m
param *.uav[46].startZ 539m
param *.uav[47].startX 312m
param *.uav[47].startY 1262m
param *.uav[47].startZ 540m
param *.uav[48].startX 2185m
param *.uav[48].startY 3026m
param *.uav[48].startZ 778m
param *.uav[49].startX 3537m
param *.uav[49].startY 965m
param *.uav[49].startZ 539m
param *.uav[50].startX 3537m
param *.uav[50].startY 965m
param *.uav[50].startZ 539m
param *.uav[51].startX 312m
param *.uav[51].startY 1262m
param *.uav[51].startZ 540m
param *.uav[52].startX 2185m
param *.uav[52].startY 3026m
param *.uav[52].startZ 778m
param *.uav[53].startX 3537m
param *.uav[53].startY 965m
param *.uav[53].startZ 539m
param *.uav[54].startX 312m
param *.uav[54].startY 1262m
param *.uav[54].startZ 540m
param *.uav[55].startX 2185m
param *.uav[55].startY 3026m
param *.uav[55].startZ 778m
param *.uav[56].startX 3537m
param *.uav[56].startY 965m
param *.uav[56].startZ 539m
param *.uav[57].startX 312m
param *.uav[57].startY 1262m
param *.uav[57].startZ 540m
param *.uav[58].startX 2185m
param *.uav[58].startY 3026m
param *.uav[58].startZ 778m
param *.uav[59].startX 3537m
param *.uav[59].startY 965m
param *.uav[59].startZ 539m
param *.uav[60].startX 3537m
param *.uav[60].startY 965m
param *.uav[60].startZ 539m
param *.uav[61].startX 312m
param *.uav[61].startY 1262m
param *.uav[61].startZ 540m
param *.uav[62].startX 2185m
param *.uav[62].startY 3026m
param *.uav[62].startZ 778m
param *.uav[63].startX 3537m
param *.uav[63].startY 965m
param *.uav[63].startZ 539m
param *.uav[64].startX 312m
param *.uav[64].startY 1262m
param *.uav[64].startZ 540m
param *.uav[65].startX 2185m
param *.uav[65].startY 3026m
param *.uav[65].startZ 778m
param *.uav[66].startX 3537m
param *.uav[66].startY 965m
param *.uav[66].startZ 539m
param *.uav[67].startX 312m
param *.uav[67].startY 1262m
param *.uav[67].startZ 540m
param *.uav[68].startX 2185m
param *.uav[68].startY 3026m
param *.uav[68].startZ 778m
param *.uav[69].startX 3537m
param *.uav[69].startY 965m
param *.uav[69].startZ 539m
param *.uav[70].startX 3537m
param *.uav[70].startY 965m
param *.uav[70].startZ 539m
param *.uav[71].startX 312m
param *.uav[71].startY 1262m
param *.uav[71].startZ 540m
param *.uav[72].startX 2185m
param *.uav[72].startY 3026m
param *.uav[72].startZ 778m
param *.uav[73].startX 3537m
param *.uav[73].startY 965m
param *.uav[73].startZ 539m
param *.uav[74].startX 312m
param *.uav[74].startY 1262m
param *.uav[74].startZ 540m
param *.uav[75].startX 2185m
param *.uav[75].startY 3026m
param *.uav[75].startZ 778m
param *.uav[76].startX 3537m
param *.uav[76].startY 965m
param *.uav[76].startZ 539m
param *.uav[77].startX 312m
param *.uav[77].startY 1262m
param *.uav[77].startZ 540m
param *.uav[78].startX 2185m
param *.uav[78].startY 3026m
param *.uav[78].startZ 778m
param *.uav[79].startX 3537m
param *.uav[79].startY 965m
param *.uav[79].startZ 539m
param *.uav[80].startX 3537m
param *.uav[80].startY 965m
param *.uav[80].startZ 539m
param *.uav[81].startX 312m
param *.uav[81].startY 1262m
param *.uav[81].startZ 540m
param *.uav[82].startX 2185m
param *.uav[82].startY 3026m
param *.uav[82].startZ 778m
param *.uav[83].startX 3537m
param *.uav[83].startY 965m
param *.uav[83].startZ 539m
param *.uav[84].startX 312m
param *.uav[84].startY 1262m
param *.uav[84].startZ 540m
param *.uav[85].startX 2185m
param *.uav[85].startY 3026m
param *.uav[85].startZ 778m
param *.uav[86].startX 3537m
param *.uav[86].startY 965m
param *.uav[86].startZ 539m
param *.uav[87].startX 312m
param *.uav[87].startY 1262m
param *.uav[87].startZ 540m
param *.uav[88].startX 2185m
param *.uav[88].startY 3026m
param *.uav[88].startZ 778m
param *.uav[89].startX 3537m
param *.uav[89].startY 965m
param *.uav[89].startZ 539m
param *.uav[90].startX 3537m
param *.uav[90].startY 965m
param *.uav[90].startZ 539m
param *.uav[91].startX 312m
param *.uav[91].startY 1262m
param *.uav[91].startZ 540m
param *.uav[92].startX 2185m
param *.uav[92].startY 3026m
param *.uav[92].startZ 778m
param *.uav[93].startX 3537m
param *.uav[93].startY 965m
param *.uav[93].startZ 539m
param *.uav[94].startX 312m
param *.uav[94].startY 1262m
param *.uav[94].startZ 540m
param *.uav[95].startX 2185m
param *.uav[95].startY 3026m
param *.uav[95].startZ 778m
param *.uav[96].startX 3537m
param *.uav[96].startY 965m
param *.uav[96].startZ 539m
param *.uav[97].startX 312m
param *.uav[97].startY 1262m
param *.uav[97].startZ 540m
param *.uav[98].startX 2185m
param *.uav[98].startY 3026m
param *.uav[98].startZ 778m
param *.uav[99].startX 3537m
param *.uav[99].startY 965m
param *.uav[99].startZ 539m
param *.osgEarthScene.scene "\"boston.earth\""
param *.playgroundLatitude 42.3558
param *.playgroundLongitude -71.0677
param *.playgroundWidth 400m
param *.playgroundHeight 200m
param *.channelController.connectionColor "\"#0000FF40\""
param *.channelController.showConnections false
param *.uav[*].modelURL "\"quadrocopter.small.obj.15.scale.0,0,90.rot\""
param *.uav[*].labelColor "\"#FF7C00CC\""
param *.uav[*].label2Color "\"#FF7C00EE\""
param *.uav[*].batteryCapacity 5200mAh
param *.uav[*].batteryRemaining uav[index].batteryCapacity
param *.uav[*].predictionQuantile 0.95
param *.uav[*].replacementMethod 2
param *.uav[*].weightedSumWeight 0.5
param *.cs[*].modelURL "\"chargingstation_v1.osgt.2.scale.0,0,0.rot.0,0,-15e-1.trans\""
param *.cs[*].spotsWaiting 999
param *.cs[*].spotsCharging 999
param *.cs[*].chargeEffectivenessPercentage 100
param *.cs[*].nonLinearPhaseStartPercentage 85
param *.cs[*].chargeCurrent 6.0A
param *.cs[*].prioritizeFastCharge true
param *.missionControl.replacementSearchMethod 0
param *.*.timeStep 9s

scalar OsgEarthNet.uav[0] utilizationSecMission 1671.0695830525
scalar OsgEarthNet.uav[0] utilizationSecMaintenance 1300.5010239446
scalar OsgEarthNet.uav[0] utilizationSecCharge 10890
scalar OsgEarthNet.uav[0] utilizationSecIdle 245338.428393
scalar OsgEarthNet.uav[0] utilizationEnergyMission 7845.6339874268
scalar OsgEarthNet.uav[0] utilizationEnergyMaintenance 5917.6744842529
scalar OsgEarthNet.uav[0] utilizationEnergyCharge 13666.547851562
scalar OsgEarthNet.uav[0] utilizationEnergyOverdrawMission 0
scalar OsgEarthNet.uav[0] utilizationEnergyOverdrawMaintenance 0
scalar OsgEarthNet.uav[0] utilizationCountMissions 3
scalar OsgEarthNet.uav[0] utilizationCountManeuversMission 28
scalar OsgEarthNet.uav[0] utilizationCountManeuversMaintenance 6
scalar OsgEarthNet.uav[0] utilizationCountChargeState 3
scalar OsgEarthNet.uav[0] utilizationCountOverdrawnAfterMission 0
scalar OsgEarthNet.uav[0] utilizationCountIdleState 4
scalar OsgEarthNet.uav[0] utilizationFail 0
scalar OsgEarthNet.uav[0] simulationTime 259200
scalar OsgEarthNet.uav[1] utilizationSecMission 20808.367038346
scalar OsgEarthNet.uav[1] utilizationSecMaintenance 16229.885060768
scalar OsgEarthNet.uav[1] utilizationSecCharge 133874.43181467
scalar OsgEarthNet.uav[1] utilizationSecIdle 88287.315086215
scalar OsgEarthNet.uav[1] utilizationEnergyMission 95213.073272705
scalar OsgEarthNet.uav[1] utilizationEnergyMaintenance 74076.895236969
scalar OsgEarthNet.uav[1] utilizationEnergyCharge 167571.5111084
scalar OsgEarthNet.uav[1] utilizationEnergyOverdrawMission 0
scalar OsgEarthNet.uav[1] utilizationEnergyOverdrawMaintenance 0
scalar OsgEarthNet.uav[1] utilizationCountMissions 38
scalar OsgEarthNet.uav[1] utilizationCountManeuversMission 346
scalar OsgEarthNet.uav[1] utilizationCountManeuversMaintenance 76
scalar OsgEarthNet.uav[1] utilizationCountChargeState 38
scalar OsgEarthNet.uav[1] utilizationCountOverdrawnAfterMission 0
scalar OsgEarthNet.uav[1] utilizationCountIdleState 38
scalar OsgEarthNet.uav[1] utilizationFail 0
scalar OsgEarthNet.uav[1] simulationTime 259200
scalar OsgEarthNet.uav[2] utilizationSecMission 26567.759503049
scalar OsgEarthNet.uav[2] utilizationSecMaintenance 19662.017314512
scalar OsgEarthNet.uav[2] utilizationSecCharge 170490.79683515
scalar OsgEarthNet.uav[2] utilizationSecIdle 42479.42534729
scalar OsgEarthNet.uav[2] utilizationEnergyMission 121503.04383087
scalar OsgEarthNet.uav[2] utilizationEnergyMaintenance 92491.210308075
scalar OsgEarthNet.uav[2] utilizationEnergyCharge 214384.29638672
scalar OsgEarthNet.uav[2] utilizationEnergyOverdrawMission 0
scalar OsgEarthNet.uav[2] utilizationEnergyOverdrawMaintenance 0
scalar OsgEarthNet.uav[2] utilizationCountMissions 47
scalar OsgEarthNet.uav[2] utilizationCountManeuversMission 433
scalar OsgEarthNet.uav[2] utilizationCountManeuversMaintenance 94
scalar OsgEarthNet.uav[2] utilizationCountChargeState 47
scalar OsgEarthNet.uav[2] utilizationCountOverdrawnAfterMission 0
scalar OsgEarthNet.uav[2] utilizationCountIdleState 47
scalar OsgEarthNet.uav[2] utilizationFail 0
scalar OsgEarthNet.uav[2] simulationTime 259200
scalar OsgEarthNet.uav[3] utilizationSecMission 18015.764994778
scalar OsgEarthNet.uav[3] utilizationSecMaintenance 14244.446222399
scalar OsgEarthNet.uav[3] utilizationSecCharge 119380
scalar OsgEarthNet.uav[3] utilizationSecIdle 107559.78778282
scalar OsgEarthNet.uav[3] utilizationEnergyMission 83294.358299255
scalar OsgEarthNet.uav[3] utilizationEnergyMaintenance 66259.991947174
scalar OsgEarthNet.uav[3] utilizationEnergyCharge 149490.52563477
scalar OsgEarthNet.uav[3] utilizationEnergyOverdrawMission 0
scalar OsgEarthNet.uav[3] utilizationEnergyOverdrawMaintenance 0
scalar OsgEarthNet.uav[3] utilizationCountMissions 33
scalar OsgEarthNet.uav[3] utilizationCountManeuversMission 302
scalar OsgEarthNet.uav[3] utilizationCountManeuversMaintenance 66
scalar OsgEarthNet.uav[3] utilizationCountChargeState 33
scalar OsgEarthNet.uav[3] utilizationCountOverdrawnAfterMission 0
scalar OsgEarthNet.uav[3] utilizationCountIdleState 34
scalar OsgEarthNet.uav[3] utilizationFail 0
scalar OsgEarthNet.uav[3] simulationTime 259200
scalar OsgEarthNet.uav[4] utilizationSecMission 25584.540344755
scalar OsgEarthNet.uav[4] utilizationSecMaintenance 18880.420526529
scalar OsgEarthNet.uav[4] utilizationSecCharge 161070
scalar OsgEarthNet.uav[4] utilizationSecIdle 53665.038128716
scalar OsgEarthNet.uav[4] utilizationEnergyMission 118969.33567037
scalar OsgEarthNet.uav[4] utilizationEnergyMaintenance 86201.209793091
scalar OsgEarthNet.uav[4] utilizationEnergyCharge 202673.86474609
scalar OsgEarthNet.uav[4] utilizationEnergyOverdrawMission 0
scalar OsgEarthNet.uav[4] utilizationEnergyOverdrawMaintenance 0
scalar OsgEarthNet.uav[4] utilizationCountMissions 44
scalar OsgEarthNet.uav[4] utilizationCountManeuversMission 428
scalar OsgEarthNet.uav[4] utilizationCountManeuversMaintenance 89
scalar OsgEarthNet.uav[4] utilizationCountChargeState 44
scalar OsgEarthNet.uav[4] utilizationCountOverdrawnAfterMission 0
scalar OsgEarthNet.uav[4] utilizationCountIdleState 45
scalar OsgEarthNet.uav[4] utilizationFail 0
scalar OsgEarthNet.uav[4] simulationTime 259200
scalar OsgEarthNet.uav[5] utilizationSecMission 30071.133745933
scalar OsgEarthNet.uav[5] utilizationSecMaintenance 18248.667082265
scalar OsgEarthNet.uav[5] utilizationSecCharge 177890
scalar OsgEarthNet.uav[5] utilizationSecIdle 32990.198171802
scalar OsgEarthNet.uav[5] utilizationEnergyMission 138200.29541022
scalar OsgEarthNet.uav[5] utilizationEnergyMaintenance 84557.187355042
scalar OsgEarthNet.uav[5] utilizationEnergyCharge 223141.66650391
scalar OsgEarthNet.uav[5] utilizationEnergyOverdrawMission 0
scalar OsgEarthNet.uav[5] utilizationEnergyOverdrawMaintenance 0
scalar OsgEarthNet.uav[5] utilizationCountMissions 49
scalar OsgEarthNet.uav[5] utilizationCountManeuversMission 488
scalar OsgEarthNet.uav[5] utilizationCountManeuversMaintenance 97
scalar OsgEarthNet.uav[5] utilizationCountChargeState 49
scalar OsgEarthNet.uav[5] utilizationCountOverdrawnAfterMission 0
scalar OsgEarthNet.uav[5] utilizationCountIdleState 50
scalar OsgEarthNet.uav[5] utilizationFail 0
scalar OsgEarthNet.uav[5] simulationTime 259200
scalar OsgEarthNet.uav[6] utilizationSecMission 28875.288124719
scalar OsgEarthNet.uav[6] utilizationSecMaintenance 21404.265178591
scalar OsgEarthNet.uav[6] utilizationSecCharge 181238.44569669
scalar OsgEarthNet.uav[6] utilizationSecIdle 27682
scalar OsgEarthNet.uav[6] utilizationEnergyMission 133121.91609192
scalar OsgEarthNet.uav[6] utilizationEnergyMaintenance 98588.969303131
scalar OsgEarthNet.uav[6] utilizationEnergyCharge 227065.46148682
scalar OsgEarthNet.uav[6] utilizationEnergyOverdrawMission 0
scalar OsgEarthNet.uav[6] utilizationEnergyOverdrawMaintenance 0
scalar OsgEarthNet.uav[6] utilizationCountMissions 51
scalar OsgEarthNet.uav[6] utilizationCountManeuversMission 457
scalar OsgEarthNet.uav[6] utilizationCountManeuversMaintenance 101
scalar OsgEarthNet.uav[6] utilizationCountChargeState 51
scalar OsgEarthNet.uav[6] utilizationCountOverdrawnAfterMission 0
scalar OsgEarthNet.uav[6] utilizationCountIdleState 51
scalar OsgEarthNet.uav[6] utilizationFail 0
scalar OsgEarthNet.uav[6] simulationTime 259200
scalar OsgEarthNet.uav[7] utilizationSecMission 12699.892820075
scalar OsgEarthNet.uav[7] utilizationSecMaintenance 9944.7061631364
scalar OsgEarthNet.uav[7] utilizationSecCharge 83880
scalar OsgEarthNet.uav[7] utilizationSecIdle 152675.40001679
scalar OsgEarthNet.uav[7] utilizationEnergyMission 59719.048717499
scalar OsgEarthNet.uav[7] utilizationEnergyMaintenance 45994.630947113
scalar OsgEarthNet.uav[7] utilizationEnergyCharge 105632.82568359
scalar OsgEarthNet.uav[7] utilizationEnergyOverdrawMission 0
scalar OsgEarthNet.uav[7] utilizationEnergyOverdrawMaintenance 0
scalar OsgEarthNet.uav[7] utilizationCountMissions 23
scalar OsgEarthNet.uav[7] utilizationCountManeuversMission 219
scalar OsgEarthNet.uav[7] utilizationCountManeuversMaintenance 46
scalar OsgEarthNet.uav[7] utilizationCountChargeState 23
scalar OsgEarthNet.uav[7] utilizationCountOverdrawnAfterMission 0
scalar OsgEarthNet.uav[7] utilizationCountIdleState 24
scalar OsgEarthNet.uav[7] utilizationFail 0
scalar OsgEarthNet.uav[7] simulationTime 259200
scalar OsgEarthNet.uav[8] utilizationSecMission 828.1936691689
scalar OsgEarthNet.uav[8] utilizationSecMaintenance 156.97870384097
scalar OsgEarthNet.uav[8] utilizationSecCharge 3830
scalar OsgEarthNet.uav[8] utilizationSecIdle 254384.82662699
scalar OsgEarthNet.uav[8] utilizationEnergyMission 3918.6637573242
scalar OsgEarthNet.uav[8] utilizationEnergyMaintenance 719.44414520264
scalar OsgEarthNet.uav[8] utilizationEnergyCharge 4849.4619140625
scalar OsgEarthNet.uav[8] utilizationEnergyOverdrawMission 0
scalar OsgEarthNet.uav[8] utilizationEnergyOverdrawMaintenance 0
scalar OsgEarthNet.uav[8] utilizationCountMissions 1
scalar OsgEarthNet.uav[8] utilizationCountManeuversMission 13
scalar OsgEarthNet.uav[8] utilizationCountManeuversMaintenance 2
scalar OsgEarthNet.uav[8] utilizationCountChargeState 1
scalar OsgEarthNet.uav[8] utilizationCountOverdrawnAfterMission 0
scalar OsgEarthNet.uav[8] utilizationCountIdleState 2
scalar OsgEarthNet.uav[8] utilizationFail 0
scalar OsgEarthNet.uav[8] simulationTime 259200
scalar OsgEarthNet.uav[9] utilizationSecMission 536.06111026321
scalar OsgEarthNet.uav[9] utilizationSecMaintenance 387.76056727994
scalar OsgEarthNet.uav[9] utilizationSecCharge 3570
scalar OsgEarthNet.uav[9] utilizationSecIdle 254706.17732246
scalar OsgEarthNet.uav[9] utilizationEnergyMission 2498.3397064209
scalar OsgEarthNet.uav[9] utilizationEnergyMaintenance 1907.1360702515
scalar OsgEarthNet.uav[9] utilizationEnergyCharge 4405.4794921875
scalar OsgEarthNet.uav[9] utilizationEnergyOverdrawMission 0
scalar OsgEarthNet.uav[9] utilizationEnergyOverdrawMaintenance 0
scalar OsgEarthNet.uav[9] utilizationCountMissions 1
scalar OsgEarthNet.uav[9] utilizationCountManeuversMission 8
scalar OsgEarthNet.uav[9] utilizationCountManeuversMaintenance 2
scalar OsgEarthNet.uav[9] utilizationCountChargeState 1
scalar OsgEarthNet.uav[9] utilizationCountOverdrawnAfterMission 0
scalar OsgEarthNet.uav[9] utilizationCountIdleState 2
scalar OsgEarthNet.uav[9] utilizationFail 0
scalar OsgEarthNet.uav[9] simulationTime 259200
scalar OsgEarthNet.uav[10] utilizationSecMission 14645.930259128
scalar OsgEarthNet.uav[10] utilizationSecMaintenance 8891.4587667793
scalar OsgEarthNet.uav[10] utilizationSecCharge 86780
scalar OsgEarthNet.uav[10] utilizationSecIdle 148882.60997409
scalar OsgEarthNet.uav[10] utilizationEnergyMission 67508.022605896
scalar OsgEarthNet.uav[10] utilizationEnergyMaintenance 41339.981578827
scalar OsgEarthNet.uav[10] utilizationEnergyCharge 108548.04956055
scalar OsgEarthNet.uav[10] utilizationEnergyOverdrawMission 0
scalar OsgEarthNet.uav[10] utilizationEnergyOverdrawMaintenance 0
scalar OsgEarthNet.uav[10] utilizationCountMissions 24
scalar OsgEarthNet.uav[10] utilizationCountManeuversMission 235
scalar OsgEarthNet.uav[10] utilizationCountManeuversMaintenance 48
scalar OsgEarthNet.uav[10] utilizationCountChargeState 24
scalar OsgEarthNet.uav[10] utilizationCountOverdrawnAfterMission 0
scalar OsgEarthNet.uav[10] utilizationCountIdleState 25
scalar OsgEarthNet.uav[10] utilizationFail 0
scalar OsgEarthNet.uav[10] simulationTime 259200
scalar OsgEarthNet.uav[11] utilizationSecMission 26520.851212401
scalar OsgEarthNet.uav[11] utilizationSecMaintenance 20885.704283318
scalar OsgEarthNet.uav[11] utilizationSecCharge 173432.2840304
scalar OsgEarthNet.uav[11] utilizationSecIdle 38361.159473879
scalar OsgEarthNet.uav[11] utilizationEnergyMission 123526.0224762
scalar OsgEarthNet.uav[11] utilizationEnergyMaintenance 96949.227615356
scalar OsgEarthNet.uav[11] utilizationEnergyCharge 219049.74584961
scalar OsgEarthNet.uav[11] utilizationEnergyOverdrawMission 0
scalar OsgEarthNet.uav[11] utilizationEnergyOverdrawMaintenance 0
scalar OsgEarthNet.uav[11] utilizationCountMissions 48
scalar OsgEarthNet.uav[11] utilizationCountManeuversMission 428
scalar OsgEarthNet.uav[11] utilizationCountManeuversMaintenance 96
scalar OsgEarthNet.uav[11] utilizationCountChargeState 48
scalar OsgEarthNet.uav[11] utilizationCountOverdrawnAfterMission 0
scalar OsgEarthNet.uav[11] utilizationCountIdleState 48
scalar OsgEarthNet.uav[11] utilizationFail 0
scalar OsgEarthNet.uav[11] simulationTime 259200
scalar OsgEarthNet.uav[12] utilizationSecMission 25933.336016198
scalar OsgEarthNet.uav[12] utilizationSecMaintenance 18017.586040558
scalar OsgEarthNet.uav[12] utilizationSecCharge 161857.62398453
scalar OsgEarthNet.uav[12] utilizationSecIdle 53391.452958717
scalar OsgEarthNet.uav[12] utilizationEnergyMission 120508.9486618
scalar OsgEarthNet.uav[12] utilizationEnergyMaintenance 84182.249549866
scalar OsgEarthNet.uav[12] utilizationEnergyCharge 203904.62817383
scalar OsgEarthNet.uav[12] utilizationEnergyOverdrawMission 0
scalar OsgEarthNet.uav[12] utilizationEnergyOverdrawMaintenance 0
scalar OsgEarthNet.uav[12] utilizationCountMissions 45
scalar OsgEarthNet.uav[12] utilizationCountManeuversMission 421
scalar OsgEarthNet.uav[12] utilizationCountManeuversMaintenance 90
scalar OsgEarthNet.uav[12] utilizationCountChargeState 45
scalar OsgEarthNet.uav[12] utilizationCountOverdrawnAfterMission 0
scalar OsgEarthNet.uav[12] utilizationCountIdleState 45
scalar OsgEarthNet.uav[12] utilizationFail 0
scalar OsgEarthNet.uav[12] simulationTime 259200
scalar OsgEarthNet.uav[13] utilizationSecMission 25951.51090486
scalar OsgEarthNet.uav[13] utilizationSecMaintenance 20812.136587064
scalar OsgEarthNet.uav[13] utilizationSecCharge 169962.95939054
scalar OsgEarthNet.uav[13] utilizationSecIdle 42473.392117534
scalar OsgEarthNet.uav[13] utilizationEnergyMission 120025.11562729
scalar OsgEarthNet.uav[13] utilizationEnergyMaintenance 95595.966003418
scalar OsgEarthNet.uav[13] utilizationEnergyCharge 214623.50805664
scalar OsgEarthNet.uav[13] utilizationEnergyOverdrawMission 0
scalar OsgEarthNet.uav[13] utilizationEnergyOverdrawMaintenance 0
scalar OsgEarthNet.uav[13] utilizationCountMissions 47
scalar OsgEarthNet.uav[13] utilizationCountManeuversMission 424
scalar OsgEarthNet.uav[13] utilizationCountManeuversMaintenance 94
scalar OsgEarthNet.uav[13] utilizationCountChargeState 47
scalar OsgEarthNet.uav[13] utilizationCountOverdrawnAfterMission 0
scalar OsgEarthNet.uav[13] utilizationCountIdleState 47
scalar OsgEarthNet.uav[13] utilizationFail 0
scalar OsgEarthNet.uav[13] simulationTime 259200
scalar OsgEarthNet.uav[14] utilizationSecMission 22004.666611815
scalar OsgEarthNet.uav[14] utilizationSecMaintenance 14485.433116461
scalar OsgEarthNet.uav[14] utilizationSecCharge 133323.43706297
scalar OsgEarthNet.uav[14] utilizationSecIdle 89386.462208756
scalar OsgEarthNet.uav[14] utilizationEnergyMission 100411.40409851
scalar OsgEarthNet.uav[14] utilizationEnergyMaintenance 68017.602909088
scalar OsgEarthNet.uav[14] utilizationEnergyCharge 168140.95800781
scalar OsgEarthNet.uav[14] utilizationEnergyOverdrawMission 0
scalar OsgEarthNet.uav[14] utilizationEnergyOverdrawMaintenance 0
scalar OsgEarthNet.uav[14] utilizationCountMissions 37
scalar OsgEarthNet.uav[14] utilizationCountManeuversMission 351
scalar OsgEarthNet.uav[14] utilizationCountManeuversMaintenance 74
scalar OsgEarthNet.uav[14] utilizationCountChargeState 37
scalar OsgEarthNet.uav[14] utilizationCountOverdrawnAfterMission 0
scalar OsgEarthNet.uav[14] utilizationCountIdleState 37
scalar OsgEarthNet.uav[14] utilizationFail 0
scalar OsgEarthNet.uav[14] simulationTime 259200
scalar OsgEarthNet.uav[15] utilizationSecMission 29202.385768171
scalar OsgEarthNet.uav[15] utilizationSecMaintenance 18563.789299163
scalar OsgEarthNet.uav[15] utilizationSecCharge 173124.64882225
scalar OsgEarthNet.uav[15] utilizationSecIdle 38309.175110411
scalar OsgEarthNet.uav[15] utilizationEnergyMission 135853.62306976
scalar OsgEarthNet.uav[15] utilizationEnergyMaintenance 84951.599285126
scalar OsgEarthNet.uav[15] utilizationEnergyCharge 218482.78417969
scalar OsgEarthNet.uav[15] utilizationEnergyOverdrawMission 0
scalar OsgEarthNet.uav[15] utilizationEnergyOverdrawMaintenance 0
scalar OsgEarthNet.uav[15] utilizationCountMissions 48
scalar OsgEarthNet.uav[15] utilizationCountManeuversMission 480
scalar OsgEarthNet.uav[15] utilizationCountManeuversMaintenance 96
scalar OsgEarthNet.uav[15] utilizationCountChargeState 48
scalar OsgEarthNet.uav[15] utilizationCountOverdrawnAfterMission 0
scalar OsgEarthNet.uav[15] utilizationCountIdleState 48
scalar OsgEarthNet.uav[15] utilizationFail 0
scalar OsgEarthNet.uav[15] simulationTime 259200
scalar OsgEarthNet.uav[16] utilizationSecMission 650.68693590098
scalar OsgEarthNet.uav[16] utilizationSecMaintenance 350.31285707965
scalar OsgEarthNet.uav[16] utilizationSecCharge 3750
scalar OsgEarthNet.uav[16] utilizationSecIdle 254448.99920702
scalar OsgEarthNet.uav[16] utilizationEnergyMission 3005.2030487061
scalar OsgEarthNet.uav[16] utilizationEnergyMaintenance 1721.6447372436
scalar OsgEarthNet.uav[16] utilizationEnergyCharge 4726.8505859375
scalar OsgEarthNet.uav[16] utilizationEnergyOverdrawMission 0
scalar OsgEarthNet.uav[16] utilizationEnergyOverdrawMaintenance 0
scalar OsgEarthNet.uav[16] utilizationCountMissions 1
scalar OsgEarthNet.uav[16] utilizationCountManeuversMission 9
scalar OsgEarthNet.uav[16] utilizationCountManeuversMaintenance 2
scalar OsgEarthNet.uav[16] utilizationCountChargeState 1
scalar OsgEarthNet.uav[16] utilizationCountOverdrawnAfterMission 0
scalar OsgEarthNet.uav[16] utilizationCountIdleState 2
scalar OsgEarthNet.uav[16] utilizationFail 0
scalar OsgEarthNet.uav[16] simulationTime 259200
scalar OsgEarthNet.uav[17] utilizationSecMission 1169.7110226449
scalar OsgEarthNet.uav[17] utilizationSecMaintenance 757.8867371681
scalar OsgEarthNet.uav[17] utilizationSecCharge 7360
scalar OsgEarthNet.uav[17] utilizationSecIdle 249912.40124019
scalar OsgEarthNet.uav[17] utilizationEnergyMission 5622.1403198242
scalar OsgEarthNet.uav[17] utilizationEnergyMaintenance 3622.4052352905
scalar OsgEarthNet.uav[17] utilizationEnergyCharge 9244.5498046875
scalar OsgEarthNet.uav[17] utilizationEnergyOverdrawMission 0
scalar OsgEarthNet.uav[17] utilizationEnergyOverdrawMaintenance 0
scalar OsgEarthNet.uav[17] utilizationCountMissions 2
scalar OsgEarthNet.uav[17] utilizationCountManeuversMission 22
scalar OsgEarthNet.uav[17] utilizationCountManeuversMaintenance 4
scalar OsgEarthNet.uav[17] utilizationCountChargeState 2
scalar OsgEarthNet.uav[17] utilizationCountOverdrawnAfterMission 0
scalar OsgEarthNet.uav[17] utilizationCountIdleState 3
scalar OsgEarthNet.uav[17] utilizationFail 0
scalar OsgEarthNet.uav[17] simulationTime 259200
scalar OsgEarthNet.uav[18] utilizationSecMission 694.00169469977
scalar OsgEarthNet.uav[18] utilizationSecMaintenance 282.18572599206
scalar OsgEarthNet.uav[18] utilizationSecCharge 3750
scalar OsgEarthNet.uav[18] utilizationSecIdle 254473.81157931
scalar OsgEarthNet.uav[18] utilizationEnergyMission 3305.2333145142
scalar OsgEarthNet.uav[18] utilizationEnergyMaintenance 1436.2022323608
scalar OsgEarthNet.uav[18] utilizationEnergyCharge 4741.431640625
scalar OsgEarthNet.uav[18] utilizationEnergyOverdrawMission 0
scalar OsgEarthNet.uav[18] utilizationEnergyOverdrawMaintenance 0
scalar OsgEarthNet.uav[18] utilizationCountMissions 1
scalar OsgEarthNet.uav[18] utilizationCountManeuversMission 13
scalar OsgEarthNet.uav[18] utilizationCountManeuversMaintenance 2
scalar OsgEarthNet.uav[18] utilizationCountChargeState 1
scalar OsgEarthNet.uav[18] utilizationCountOverdrawnAfterMission 0
scalar OsgEarthNet.uav[18] utilizationCountIdleState 2
scalar OsgEarthNet.uav[18] utilizationFail 0
scalar OsgEarthNet.uav[18] simulationTime 259200
scalar OsgEarthNet.uav[19] utilizationSecMission 7528.9957400086
scalar OsgEarthNet.uav[19] utilizationSecMaintenance 5235.3679175037
scalar OsgEarthNet.uav[19] utilizationSecCharge 46690
scalar OsgEarthNet.uav[19] utilizationSecIdle 199745.63534249
scalar OsgEarthNet.uav[19] utilizationEnergyMission 34199.985992432
scalar OsgEarthNet.uav[19] utilizationEnergyMaintenance 24151.775154114
scalar OsgEarthNet.uav[19] utilizationEnergyCharge 58333.05859375
scalar OsgEarthNet.uav[19] utilizationEnergyOverdrawMission 0
scalar OsgEarthNet.uav[19] utilizationEnergyOverdrawMaintenance 0
scalar OsgEarthNet.uav[19] utilizationCountMissions 13
scalar OsgEarthNet.uav[19] utilizationCountManeuversMission 122
scalar OsgEarthNet.uav[19] utilizationCountManeuversMaintenance 26
scalar OsgEarthNet.uav[19] utilizationCountChargeState 13
scalar OsgEarthNet.uav[19] utilizationCountOverdrawnAfterMission 0
scalar OsgEarthNet.uav[19] utilizationCountIdleState 14
scalar OsgEarthNet.uav[19] utilizationFail 0
scalar OsgEarthNet.uav[19] simulationTime 259200
scalar OsgEarthNet.uav[20] utilizationSecMission 313.66140879233
scalar OsgEarthNet.uav[20] utilizationSecMaintenance 473.03391658586
scalar OsgEarthNet.uav[20] utilizationSecCharge 3080
scalar OsgEarthNet.uav[20] utilizationSecIdle 255333.30367462
scalar OsgEarthNet.uav[20] utilizationEnergyMission 1502.7569122314
scalar OsgEarthNet.uav[20] utilizationEnergyMaintenance 2061.0984725952
scalar OsgEarthNet.uav[20] utilizationEnergyCharge 3563.8525390625
scalar OsgEarthNet.uav[20] utilizationEnergyOverdrawMission 0
scalar OsgEarthNet.uav[20] utilizationEnergyOverdrawMaintenance 0
scalar OsgEarthNet.uav[20] utilizationCountMissions 1
scalar OsgEarthNet.uav[20] utilizationCountManeuversMission 5
scalar OsgEarthNet.uav[20] utilizationCountManeuversMaintenance 2
scalar OsgEarthNet.uav[20] utilizationCountChargeState 1
scalar OsgEarthNet.uav[20] utilizationCountOverdrawnAfterMission 0
scalar OsgEarthNet.uav[20] utilizationCountIdleState 2
scalar OsgEarthNet.uav[20] utilizationFail 0
scalar OsgEarthNet.uav[20] simulationTime 259200
scalar OsgEarthNet.uav[21] utilizationSecMission 651.00239942633
scalar OsgEarthNet.uav[21] utilizationSecMaintenance 335.83102590171
scalar OsgEarthNet.uav[21] utilizationSecCharge 3790
scalar OsgEarthNet.uav[21] utilizationSecIdle 254423.16557467
scalar OsgEarthNet.uav[21] utilizationEnergyMission 3195.6583023071
scalar OsgEarthNet.uav[21] utilizationEnergyMaintenance 1633.5320549011
scalar OsgEarthNet.uav[21] utilizationEnergyCharge 4829.1870117188
scalar OsgEarthNet.uav[21] utilizationEnergyOverdrawMission 0
scalar OsgEarthNet.uav[21] utilizationEnergyOverdrawMaintenance 0
scalar OsgEarthNet.uav[21] utilizationCountMissions 1
scalar OsgEarthNet.uav[21] utilizationCountManeuversMission 12
scalar OsgEarthNet.uav[21] utilizationCountManeuversMaintenance 2
scalar OsgEarthNet.uav[21] utilizationCountChargeState 1
scalar OsgEarthNet.uav[21] utilizationCountOverdrawnAfterMission 0
scalar OsgEarthNet.uav[21] utilizationCountIdleState 2
scalar OsgEarthNet.uav[21] utilizationFail 0
scalar OsgEarthNet.uav[21] simulationTime 259200
scalar OsgEarthNet.uav[22] utilizationSecMission 7689.6822982157
scalar OsgEarthNet.uav[22] utilizationSecMaintenance 6285.6219980741
scalar OsgEarthNet.uav[22] utilizationSecCharge 51390
scalar OsgEarthNet.uav[22] utilizationSecIdle 193834.69470371
scalar OsgEarthNet.uav[22] utilizationEnergyMission 35459.507034302
scalar OsgEarthNet.uav[22] utilizationEnergyMaintenance 28935.632801056
scalar OsgEarthNet.uav[22] utilizationEnergyCharge 64622.469238281
scalar OsgEarthNet.uav[22] utilizationEnergyOverdrawMission 0
scalar OsgEarthNet.uav[22] utilizationEnergyOverdrawMaintenance 0
scalar OsgEarthNet.uav[22] utilizationCountMissions 14
scalar OsgEarthNet.uav[22] utilizationCountManeuversMission 129
scalar OsgEarthNet.uav[22] utilizationCountManeuversMaintenance 28
scalar OsgEarthNet.uav[22] utilizationCountChargeState 14
scalar OsgEarthNet.uav[22] utilizationCountOverdrawnAfterMission 0
scalar OsgEarthNet.uav[22] utilizationCountIdleState 15
scalar OsgEarthNet.uav[22] utilizationFail 0
scalar OsgEarthNet.uav[22] simulationTime 259200
scalar OsgEarthNet.uav[23] utilizationSecMission 26649.412225963
scalar OsgEarthNet.uav[23] utilizationSecMaintenance 19729.384865844
scalar OsgEarthNet.uav[23] utilizationSecCharge 169868.43594285
scalar OsgEarthNet.uav[23] utilizationSecIdle 42952.765965339
scalar OsgEarthNet.uav[23] utilizationEnergyMission 122690.40094757
scalar OsgEarthNet.uav[23] utilizationEnergyMaintenance 92207.839366913
scalar OsgEarthNet.uav[23] utilizationEnergyCharge 214230.70996094
scalar OsgEarthNet.uav[23] utilizationEnergyOverdrawMission 0
scalar OsgEarthNet.uav[23] utilizationEnergyOverdrawMaintenance 0
scalar OsgEarthNet.uav[23] utilizationCountMissions 47
scalar OsgEarthNet.uav[23] utilizationCountManeuversMission 431
scalar OsgEarthNet.uav[23] utilizationCountManeuversMaintenance 94
scalar OsgEarthNet.uav[23] utilizationCountChargeState 47
scalar OsgEarthNet.uav[23] utilizationCountOverdrawnAfterMission 0
scalar OsgEarthNet.uav[23] utilizationCountIdleState 47
scalar OsgEarthNet.uav[23] utilizationFail 0
scalar OsgEarthNet.uav[23] simulationTime 259200
scalar OsgEarthNet.uav[24] utilizationSecMission 553.12566654921
scalar OsgEarthNet.uav[24] utilizationSecMaintenance 489.82638271256
scalar OsgEarthNet.uav[24] utilizationSecCharge 3780
scalar OsgEarthNet.uav[24] utilizationSecIdle 254377.04695074
scalar OsgEarthNet.uav[24] utilizationEnergyMission 2374.4288482666
scalar OsgEarthNet.uav[24] utilizationEnergyMaintenance 2449.8706169128
scalar OsgEarthNet.uav[24] utilizationEnergyCharge 4798.2075195312
scalar OsgEarthNet.uav[24] utilizationEnergyOverdrawMission 0
scalar OsgEarthNet.uav[24] utilizationEnergyOverdrawMaintenance 0
scalar OsgEarthNet.uav[24] utilizationCountMissions 1
scalar OsgEarthNet.uav[24] utilizationCountManeuversMission 9
scalar OsgEarthNet.uav[24] utilizationCountManeuversMaintenance 2
scalar OsgEarthNet.uav[24] utilizationCountChargeState 1
scalar OsgEarthNet.uav[24] utilizationCountOverdrawnAfterMission 0
scalar OsgEarthNet.uav[24] utilizationCountIdleState 2
scalar OsgEarthNet.uav[24] utilizationFail 0
scalar OsgEarthNet.uav[24] simulationTime 259200
scalar OsgEarthNet.uav[25] utilizationSecMission 26523.536792356
scalar OsgEarthNet.uav[25] utilizationSecMaintenance 20090.080480618
scalar OsgEarthNet.uav[25] utilizationSecCharge 172407.16211311
scalar OsgEarthNet.uav[25] utilizationSecIdle 40179.219613916
scalar OsgEarthNet.uav[25] utilizationEnergyMission 123020.09898758
scalar OsgEarthNet.uav[25] utilizationEnergyMaintenance 93513.756820679
scalar OsgEarthNet.uav[25] utilizationEnergyCharge 216180.8737793
scalar OsgEarthNet.uav[25] utilizationEnergyOverdrawMission 0
scalar OsgEarthNet.uav[25] utilizationEnergyOverdrawMaintenance 0
scalar OsgEarthNet.uav[25] utilizationCountMissions 48
scalar OsgEarthNet.uav[25] utilizationCountManeuversMission 429
scalar OsgEarthNet.uav[25] utilizationCountManeuversMaintenance 96
scalar OsgEarthNet.uav[25] utilizationCountChargeState 48
scalar OsgEarthNet.uav[25] utilizationCountOverdrawnAfterMission 0
scalar OsgEarthNet.uav[25] utilizationCountIdleState 48
scalar OsgEarthNet.uav[25] utilizationFail 0
scalar OsgEarthNet.uav[25] simulationTime 259200
scalar OsgEarthNet.uav[26] utilizationSecMission 313.66140879233
scalar OsgEarthNet.uav[26] utilizationSecMaintenance 473.03391658586
scalar OsgEarthNet.uav[26] utilizationSecCharge 3110
scalar OsgEarthNet.uav[26] utilizationSecIdle 255303.30367462
scalar OsgEarthNet.uav[26] utilizationEnergyMission 1439.0980529785
scalar OsgEarthNet.uav[26] utilizationEnergyMaintenance 2188.0068588257
scalar OsgEarthNet.uav[26] utilizationEnergyCharge 3627.1020507812
scalar OsgEarthNet.uav[26] utilizationEnergyOverdrawMission 0
scalar OsgEarthNet.uav[26] utilizationEnergyOverdrawMaintenance 0
scalar OsgEarthNet.uav[26] utilizationCountMissions 1
scalar OsgEarthNet.uav[26] utilizationCountManeuversMission 5
scalar OsgEarthNet.uav[26] utilizationCountManeuversMaintenance 2
scalar OsgEarthNet.uav[26] utilizationCountChargeState 1
scalar OsgEarthNet.uav[26] utilizationCountOverdrawnAfterMission 0
scalar OsgEarthNet.uav[26] utilizationCountIdleState 2
scalar OsgEarthNet.uav[26] utilizationFail 0
scalar OsgEarthNet.uav[26] simulationTime 259200
scalar OsgEarthNet.uav[27] utilizationSecMission 27295.358939144
scalar OsgEarthNet.uav[27] utilizationSecMaintenance 17742.624042214
scalar OsgEarthNet.uav[27] utilizationSecCharge 163860
scalar OsgEarthNet.uav[27] utilizationSecIdle 50302.016018642
scalar OsgEarthNet.uav[27] utilizationEnergyMission 127414.65626786
scalar OsgEarthNet.uav[27] utilizationEnergyMaintenance 81957.281394959
scalar OsgEarthNet.uav[27] utilizationEnergyCharge 205447.57373047
scalar OsgEarthNet.uav[27] utilizationEnergyOverdrawMission 0
scalar OsgEarthNet.uav[27] utilizationEnergyOverdrawMaintenance 0
scalar OsgEarthNet.uav[27] utilizationCountMissions 45
scalar OsgEarthNet.uav[27] utilizationCountManeuversMission 448
scalar OsgEarthNet.uav[27] utilizationCountManeuversMaintenance 91
scalar OsgEarthNet.uav[27] utilizationCountChargeState 45
scalar OsgEarthNet.uav[27] utilizationCountOverdrawnAfterMission 0
scalar OsgEarthNet.uav[27] utilizationCountIdleState 46
scalar OsgEarthNet.uav[27] utilizationFail 0
scalar OsgEarthNet.uav[27] simulationTime 259200
scalar OsgEarthNet.uav[28] utilizationSecMission 750.20472747826
scalar OsgEarthNet.uav[28] utilizationSecMaintenance 255.5651663541
scalar OsgEarthNet.uav[28] utilizationSecCharge 3540
scalar OsgEarthNet.uav[28] utilizationSecIdle 254654.22910617
scalar OsgEarthNet.uav[28] utilizationEnergyMission 3250.7362823486
scalar OsgEarthNet.uav[28] utilizationEnergyMaintenance 1110.1338005066
scalar OsgEarthNet.uav[28] utilizationEnergyCharge 4360.8676757812
scalar OsgEarthNet.uav[28] utilizationEnergyOverdrawMission 0
scalar OsgEarthNet.uav[28] utilizationEnergyOverdrawMaintenance 0
scalar OsgEarthNet.uav[28] utilizationCountMissions 1
scalar OsgEarthNet.uav[28] utilizationCountManeuversMission 11
scalar OsgEarthNet.uav[28] utilizationCountManeuversMaintenance 2
scalar OsgEarthNet.uav[28] utilizationCountChargeState 1
scalar OsgEarthNet.uav[28] utilizationCountOverdrawnAfterMission 0
scalar OsgEarthNet.uav[28] utilizationCountIdleState 2
scalar OsgEarthNet.uav[28] utilizationFail 0
scalar OsgEarthNet.uav[28] simulationTime 259200
scalar OsgEarthNet.uav[29] utilizationSecMission 240.79679628951
scalar OsgEarthNet.uav[29] utilizationSecMaintenance 763.48520695637
scalar OsgEarthNet.uav[29] utilizationSecCharge 3720
scalar OsgEarthNet.uav[29] utilizationSecIdle 254475.71699675
scalar OsgEarthNet.uav[29] utilizationEnergyMission 1159.7379150391
scalar OsgEarthNet.uav[29] utilizationEnergyMaintenance 3542.9552230835
scalar OsgEarthNet.uav[29] utilizationEnergyCharge 4702.6997070312
scalar OsgEarthNet.uav[29] utilizationEnergyOverdrawMission 0
scalar OsgEarthNet.uav[29] utilizationEnergyOverdrawMaintenance 0
scalar OsgEarthNet.uav[29] utilizationCountMissions 1
scalar OsgEarthNet.uav[29] utilizationCountManeuversMission 5
scalar OsgEarthNet.uav[29] utilizationCountManeuversMaintenance 2
scalar OsgEarthNet.uav[29] utilizationCountChargeState 1
scalar OsgEarthNet.uav[29] utilizationCountOverdrawnAfterMission 0
scalar OsgEarthNet.uav[29] utilizationCountIdleState 2
scalar OsgEarthNet.uav[29] utilizationFail 0
scalar OsgEarthNet.uav[29] simulationTime 259200
scalar OsgEarthNet.uav[30] utilizationSecMission 29412.106648369
scalar OsgEarthNet.uav[30] utilizationSecMaintenance 18710.264537469
scalar OsgEarthNet.uav[30] utilizationSecCharge 174445.62781416
scalar OsgEarthNet.uav[30] utilizationSecIdle 36632
scalar OsgEarthNet.uav[30] utilizationEnergyMission 135146.17486954
scalar OsgEarthNet.uav[30] utilizationEnergyMaintenance 85715.860565186
scalar OsgEarthNet.uav[30] utilizationEnergyCharge 219094.11010742
scalar OsgEarthNet.uav[30] utilizationEnergyOverdrawMission 0
scalar OsgEarthNet.uav[30] utilizationEnergyOverdrawMaintenance 0
scalar OsgEarthNet.uav[30] utilizationCountMissions 49
scalar OsgEarthNet.uav[30] utilizationCountManeuversMission 467
scalar OsgEarthNet.uav[30] utilizationCountManeuversMaintenance 97
scalar OsgEarthNet.uav[30] utilizationCountChargeState 49
scalar OsgEarthNet.uav[30] utilizationCountOverdrawnAfterMission 0
scalar OsgEarthNet.uav[30] utilizationCountIdleState 49
scalar OsgEarthNet.uav[30] utilizationFail 0
scalar OsgEarthNet.uav[30] simulationTime 259200
scalar OsgEarthNet.uav[31] utilizationSecMission 27178.361875878
scalar OsgEarthNet.uav[31] utilizationSecMaintenance 19379.894314331
scalar OsgEarthNet.uav[31] utilizationSecCharge 171080.6869843
scalar OsgEarthNet.uav[31] utilizationSecIdle 41561.055825492
scalar OsgEarthNet.uav[31] utilizationEnergyMission 124967.74224091
scalar OsgEarthNet.uav[31] utilizationEnergyMaintenance 90452.267471313
scalar OsgEarthNet.uav[31] utilizationEnergyCharge 215332.98339844
scalar OsgEarthNet.uav[31] utilizationEnergyOverdrawMission 0
scalar OsgEarthNet.uav[31] utilizationEnergyOverdrawMaintenance 0
scalar OsgEarthNet.uav[31] utilizationCountMissions 47
scalar OsgEarthNet.uav[31] utilizationCountManeuversMission 447
scalar OsgEarthNet.uav[31] utilizationCountManeuversMaintenance 94
scalar OsgEarthNet.uav[31] utilizationCountChargeState 47
scalar OsgEarthNet.uav[31] utilizationCountOverdrawnAfterMission 0
scalar OsgEarthNet.uav[31] utilizationCountIdleState 47
scalar OsgEarthNet.uav[31] utilizationFail 0
scalar OsgEarthNet.uav[31] simulationTime 259200
scalar OsgEarthNet.uav[32] utilizationSecMission 16281.409393292
scalar OsgEarthNet.uav[32] utilizationSecMaintenance 10412.371327223
scalar OsgEarthNet.uav[32] utilizationSecCharge 99080
scalar OsgEarthNet.uav[32] utilizationSecIdle 133426.21827949
scalar OsgEarthNet.uav[32] utilizationEnergyMission 75605.806861877
scalar OsgEarthNet.uav[32] utilizationEnergyMaintenance 48714.619174957
scalar OsgEarthNet.uav[32] utilizationEnergyCharge 124523.09423828
scalar OsgEarthNet.uav[32] utilizationEnergyOverdrawMission 0
scalar OsgEarthNet.uav[32] utilizationEnergyOverdrawMaintenance 0
scalar OsgEarthNet.uav[32] utilizationCountMissions 27
scalar OsgEarthNet.uav[32] utilizationCountManeuversMission 260
scalar OsgEarthNet.uav[32] utilizationCountManeuversMaintenance 54
scalar OsgEarthNet.uav[32] utilizationCountChargeState 27
scalar OsgEarthNet.uav[32] utilizationCountOverdrawnAfterMission 0
scalar OsgEarthNet.uav[32] utilizationCountIdleState 28
scalar OsgEarthNet.uav[32] utilizationFail 0
scalar OsgEarthNet.uav[32] simulationTime 259200
scalar OsgEarthNet.uav[33] utilizationSecMission 25475.420348495
scalar OsgEarthNet.uav[33] utilizationSecMaintenance 16929.308077387
scalar OsgEarthNet.uav[33] utilizationSecCharge 152540
scalar OsgEarthNet.uav[33] utilizationSecIdle 64255.270574118
scalar OsgEarthNet.uav[33] utilizationEnergyMission 116626.36255646
scalar OsgEarthNet.uav[33] utilizationEnergyMaintenance 78479.920678705
scalar OsgEarthNet.uav[33] utilizationEnergyCharge 191490.8449707
scalar OsgEarthNet.uav[33] utilizationEnergyOverdrawMission 0
scalar OsgEarthNet.uav[33] utilizationEnergyOverdrawMaintenance 0
scalar OsgEarthNet.uav[33] utilizationCountMissions 43
scalar OsgEarthNet.uav[33] utilizationCountManeuversMission 407
scalar OsgEarthNet.uav[33] utilizationCountManeuversMaintenance 86
scalar OsgEarthNet.uav[33] utilizationCountChargeState 42
scalar OsgEarthNet.uav[33] utilizationCountOverdrawnAfterMission 0
scalar OsgEarthNet.uav[33] utilizationCountIdleState 43
scalar OsgEarthNet.uav[33] utilizationFail 0
scalar OsgEarthNet.uav[33] simulationTime 259200
scalar OsgEarthNet.uav[34] utilizationSecMission 21835.516700658
scalar OsgEarthNet.uav[34] utilizationSecMaintenance 16766.780854176
scalar OsgEarthNet.uav[34] utilizationSecCharge 142149.21854932
scalar OsgEarthNet.uav[34] utilizationSecIdle 78448.48289585
scalar OsgEarthNet.uav[34] utilizationEnergyMission 102437.29022217
scalar OsgEarthNet.uav[34] utilizationEnergyMaintenance 77153.93888092
scalar OsgEarthNet.uav[34] utilizationEnergyCharge 179528.19238281
scalar OsgEarthNet.uav[34] utilizationEnergyOverdrawMission 0
scalar OsgEarthNet.uav[34] utilizationEnergyOverdrawMaintenance 0
scalar OsgEarthNet.uav[34] utilizationCountMissions 39
scalar OsgEarthNet.uav[34] utilizationCountManeuversMission 361
scalar OsgEarthNet.uav[34] utilizationCountManeuversMaintenance 78
scalar OsgEarthNet.uav[34] utilizationCountChargeState 39
scalar OsgEarthNet.uav[34] utilizationCountOverdrawnAfterMission 0
scalar OsgEarthNet.uav[34] utilizationCountIdleState 39
scalar OsgEarthNet.uav[34] utilizationFail 0
scalar OsgEarthNet.uav[34] simulationTime 259200
scalar OsgEarthNet.uav[35] utilizationSecMission 887.1741082606
scalar OsgEarthNet.uav[35] utilizationSecMaintenance 148.2728194454
scalar OsgEarthNet.uav[35] utilizationSecCharge 3660
scalar OsgEarthNet.uav[35] utilizationSecIdle 254504.55207229
scalar OsgEarthNet.uav[35] utilizationEnergyMission 3951.9045104981
scalar OsgEarthNet.uav[35] utilizationEnergyMaintenance 763.47017669678
scalar OsgEarthNet.uav[35] utilizationEnergyCharge 4588.876953125
scalar OsgEarthNet.uav[35] utilizationEnergyOverdrawMission 0
scalar OsgEarthNet.uav[35] utilizationEnergyOverdrawMaintenance 0
scalar OsgEarthNet.uav[35] utilizationCountMissions 1
scalar OsgEarthNet.uav[35] utilizationCountManeuversMission 14
scalar OsgEarthNet.uav[35] utilizationCountManeuversMaintenance 2
scalar OsgEarthNet.uav[35] utilizationCountChargeState 1
scalar OsgEarthNet.uav[35] utilizationCountOverdrawnAfterMission 0
scalar OsgEarthNet.uav[35] utilizationCountIdleState 2
scalar OsgEarthNet.uav[35] utilizationFail 0
scalar OsgEarthNet.uav[35] simulationTime 259200
scalar OsgEarthNet.uav[36] utilizationSecMission 650.68693590098
scalar OsgEarthNet.uav[36] utilizationSecMaintenance 350.31285707965
scalar OsgEarthNet.uav[36] utilizationSecCharge 3560
scalar OsgEarthNet.uav[36] utilizationSecIdle 254638.99920702
scalar OsgEarthNet.uav[36] utilizationEnergyMission 2858.2364807129
scalar OsgEarthNet.uav[36] utilizationEnergyMaintenance 1596.231803894
scalar OsgEarthNet.uav[36] utilizationEnergyCharge 4454.470703125
scalar OsgEarthNet.uav[36] utilizationEnergyOverdrawMission 0
scalar OsgEarthNet.uav[36] utilizationEnergyOverdrawMaintenance 0
scalar OsgEarthNet.uav[36] utilizationCountMissions 1
scalar OsgEarthNet.uav[36] utilizationCountManeuversMission 9
scalar OsgEarthNet.uav[36] utilizationCountManeuversMaintenance 2
scalar OsgEarthNet.uav[36] utilizationCountChargeState 1
scalar OsgEarthNet.uav[36] utilizationCountOverdrawnAfterMission 0
scalar OsgEarthNet.uav[36] utilizationCountIdleState 2
scalar OsgEarthNet.uav[36] utilizationFail 0
scalar OsgEarthNet.uav[36] simulationTime 259200
scalar OsgEarthNet.uav[37] utilizationSecMission 29431.688282142
scalar OsgEarthNet.uav[37] utilizationSecMaintenance 18238.863180251
scalar OsgEarthNet.uav[37] utilizationSecCharge 175320
scalar OsgEarthNet.uav[37] utilizationSecIdle 36209.447537607
scalar OsgEarthNet.uav[37] utilizationEnergyMission 134930.1439743
scalar OsgEarthNet.uav[37] utilizationEnergyMaintenance 85328.255138397
scalar OsgEarthNet.uav[37] utilizationEnergyCharge 220460.95410156
scalar OsgEarthNet.uav[37] utilizationEnergyOverdrawMission 0
scalar OsgEarthNet.uav[37] utilizationEnergyOverdrawMaintenance 0
scalar OsgEarthNet.uav[37] utilizationCountMissions 48
scalar OsgEarthNet.uav[37] utilizationCountManeuversMission 485
scalar OsgEarthNet.uav[37] utilizationCountManeuversMaintenance 96
scalar OsgEarthNet.uav[37] utilizationCountChargeState 48
scalar OsgEarthNet.uav[37] utilizationCountOverdrawnAfterMission 0
scalar OsgEarthNet.uav[37] utilizationCountIdleState 49
scalar OsgEarthNet.uav[37] utilizationFail 0
scalar OsgEarthNet.uav[37] simulationTime 259200
scalar OsgEarthNet.uav[38] utilizationSecMission 694.00169469977
scalar OsgEarthNet.uav[38] utilizationSecMaintenance 282.18572599206
scalar OsgEarthNet.uav[38] utilizationSecCharge 3740
scalar OsgEarthNet.uav[38] utilizationSecIdle 254483.81157931
scalar OsgEarthNet.uav[38] utilizationEnergyMission 3334.2822189331
scalar OsgEarthNet.uav[38] utilizationEnergyMaintenance 1360.9358139038
scalar OsgEarthNet.uav[38] utilizationEnergyCharge 4695.2182617188
scalar OsgEarthNet.uav[38] utilizationEnergyOverdrawMission 0
scalar OsgEarthNet.uav[38] utilizationEnergyOverdrawMaintenance 0
scalar OsgEarthNet.uav[38] utilizationCountMissions 1
scalar OsgEarthNet.uav[38] utilizationCountManeuversMission 13
scalar OsgEarthNet.uav[38] utilizationCountManeuversMaintenance 2
scalar OsgEarthNet.uav[38] utilizationCountChargeState 1
scalar OsgEarthNet.uav[38] utilizationCountOverdrawnAfterMission 0
scalar OsgEarthNet.uav[38] utilizationCountIdleState 2
scalar OsgEarthNet.uav[38] utilizationFail 0
scalar OsgEarthNet.uav[38] simulationTime 259200
scalar OsgEarthNet.uav[39] utilizationSecMission 27408.662092065
scalar OsgEarthNet.uav[39] utilizationSecMaintenance 18275.752277915
scalar OsgEarthNet.uav[39] utilizationSecCharge 165201.56636029
scalar OsgEarthNet.uav[39] utilizationSecIdle 48314.018269728
scalar OsgEarthNet.uav[39] utilizationEnergyMission 127493.693573
scalar OsgEarthNet.uav[39] utilizationEnergyMaintenance 84440.611988068
scalar OsgEarthNet.uav[39] utilizationEnergyCharge 208262.49639893
scalar OsgEarthNet.uav[39] utilizationEnergyOverdrawMission 0
scalar OsgEarthNet.uav[39] utilizationEnergyOverdrawMaintenance 0
scalar OsgEarthNet.uav[39] utilizationCountMissions 46
scalar OsgEarthNet.uav[39] utilizationCountManeuversMission 440
scalar OsgEarthNet.uav[39] utilizationCountManeuversMaintenance 92
scalar OsgEarthNet.uav[39] utilizationCountChargeState 46
scalar OsgEarthNet.uav[39] utilizationCountOverdrawnAfterMission 0
scalar OsgEarthNet.uav[39] utilizationCountIdleState 46
scalar OsgEarthNet.uav[39] utilizationFail 0
scalar OsgEarthNet.uav[39] simulationTime 259200
scalar OsgEarthNet.uav[40] utilizationSecMission 28353.965830529
scalar OsgEarthNet.uav[40] utilizationSecMaintenance 18271.215849616
scalar OsgEarthNet.uav[40] utilizationSecCharge 172090
scalar OsgEarthNet.uav[40] utilizationSecIdle 40484.817319855
scalar OsgEarthNet.uav[40] utilizationEnergyMission 131867.39430237
scalar OsgEarthNet.uav[40] utilizationEnergyMaintenance 84484.687328339
scalar OsgEarthNet.uav[40] utilizationEnergyCharge 216294.75976562
scalar OsgEarthNet.uav[40] utilizationEnergyOverdrawMission 0
scalar OsgEarthNet.uav[40] utilizationEnergyOverdrawMaintenance 0
scalar OsgEarthNet.uav[40] utilizationCountMissions 47
scalar OsgEarthNet.uav[40] utilizationCountManeuversMission 453
scalar OsgEarthNet.uav[40] utilizationCountManeuversMaintenance 94
scalar OsgEarthNet.uav[40] utilizationCountChargeState 47
scalar OsgEarthNet.uav[40] utilizationCountOverdrawnAfterMission 0
scalar OsgEarthNet.uav[40] utilizationCountIdleState 48
scalar OsgEarthNet.uav[40] utilizationFail 0
scalar OsgEarthNet.uav[40] simulationTime 259200
scalar OsgEarthNet.uav[41] utilizationSecMission 28444.253776561
scalar OsgEarthNet.uav[41] utilizationSecMaintenance 17921.035080844
scalar OsgEarthNet.uav[41] utilizationSecCharge 171518.02933471
scalar OsgEarthNet.uav[41] utilizationSecIdle 41316.680807888
scalar OsgEarthNet.uav[41] utilizationEnergyMission 131938.32086945
scalar OsgEarthNet.uav[41] utilizationEnergyMaintenance 83508.037216187
scalar OsgEarthNet.uav[41] utilizationEnergyCharge 215030.29785156
scalar OsgEarthNet.uav[41] utilizationEnergyOverdrawMission 0
scalar OsgEarthNet.uav[41] utilizationEnergyOverdrawMaintenance 0
scalar OsgEarthNet.uav[41] utilizationCountMissions 48
scalar OsgEarthNet.uav[41] utilizationCountManeuversMission 470
scalar OsgEarthNet.uav[41] utilizationCountManeuversMaintenance 96
scalar OsgEarthNet.uav[41] utilizationCountChargeState 48
scalar OsgEarthNet.uav[41] utilizationCountOverdrawnAfterMission 0
scalar OsgEarthNet.uav[41] utilizationCountIdleState 48
scalar OsgEarthNet.uav[41] utilizationFail 0
scalar OsgEarthNet.uav[41] simulationTime 259200
scalar OsgEarthNet.uav[42] utilizationSecMission 887.1741082606
scalar OsgEarthNet.uav[42] utilizationSecMaintenance 148.2728194454
scalar OsgEarthNet.uav[42] utilizationSecCharge 3690
scalar OsgEarthNet.uav[42] utilizationSecIdle 254474.55207229
scalar OsgEarthNet.uav[42] utilizationEnergyMission 4040.2805480957
scalar OsgEarthNet.uav[42] utilizationEnergyMaintenance 609.10289764404
scalar OsgEarthNet.uav[42] utilizationEnergyCharge 4668.7568359375
scalar OsgEarthNet.uav[42] utilizationEnergyOverdrawMission 0
scalar OsgEarthNet.uav[42] utilizationEnergyOverdrawMaintenance 0
scalar OsgEarthNet.uav[42] utilizationCountMissions 1
scalar OsgEarthNet.uav[42] utilizationCountManeuversMission 14
scalar OsgEarthNet.uav[42] utilizationCountManeuversMaintenance 2
scalar OsgEarthNet.uav[42] utilizationCountChargeState 1
scalar OsgEarthNet.uav[42] utilizationCountOverdrawnAfterMission 0
scalar OsgEarthNet.uav[42] utilizationCountIdleState 2
scalar OsgEarthNet.uav[42] utilizationFail 0
scalar OsgEarthNet.uav[42] simulationTime 259200
scalar OsgEarthNet.uav[43] utilizationSecMission 28159.10913532
scalar OsgEarthNet.uav[43] utilizationSecMaintenance 16538.427026299
scalar OsgEarthNet.uav[43] utilizationSecCharge 161047.81841646
scalar OsgEarthNet.uav[43] utilizationSecIdle 53454.644421923
scalar OsgEarthNet.uav[43] utilizationEnergyMission 130793.33635712
scalar OsgEarthNet.uav[43] utilizationEnergyMaintenance 75949.259334564
scalar OsgEarthNet.uav[43] utilizationEnergyCharge 202601.17810059
scalar OsgEarthNet.uav[43] utilizationEnergyOverdrawMission 0
scalar OsgEarthNet.uav[43] utilizationEnergyOverdrawMaintenance 0
scalar OsgEarthNet.uav[43] utilizationCountMissions 45
scalar OsgEarthNet.uav[43] utilizationCountManeuversMission 452
scalar OsgEarthNet.uav[43] utilizationCountManeuversMaintenance 90
scalar OsgEarthNet.uav[43] utilizationCountChargeState 45
scalar OsgEarthNet.uav[43] utilizationCountOverdrawnAfterMission 0
scalar OsgEarthNet.uav[43] utilizationCountIdleState 45
scalar OsgEarthNet.uav[43] utilizationFail 0
scalar OsgEarthNet.uav[43] simulationTime 259200
scalar OsgEarthNet.uav[44] utilizationSecMission 26864.075434747
scalar OsgEarthNet.uav[44] utilizationSecMaintenance 18656.465161345
scalar OsgEarthNet.uav[44] utilizationSecCharge 165069.44009946
scalar OsgEarthNet.uav[44] utilizationSecIdle 48610.018304444
scalar OsgEarthNet.uav[44] utilizationEnergyMission 123825.67206573
scalar OsgEarthNet.uav[44] utilizationEnergyMaintenance 87309.17975235
scalar OsgEarthNet.uav[44] utilizationEnergyCharge 207554.82092285
scalar OsgEarthNet.uav[44] utilizationEnergyOverdrawMission 0
scalar OsgEarthNet.uav[44] utilizationEnergyOverdrawMaintenance 0
scalar OsgEarthNet.uav[44] utilizationCountMissions 46
scalar OsgEarthNet.uav[44] utilizationCountManeuversMission 448
scalar OsgEarthNet.uav[44] utilizationCountManeuversMaintenance 92
scalar OsgEarthNet.uav[44] utilizationCountChargeState 46
scalar OsgEarthNet.uav[44] utilizationCountOverdrawnAfterMission 0
scalar OsgEarthNet.uav[44] utilizationCountIdleState 46
scalar OsgEarthNet.uav[44] utilizationFail 0
scalar OsgEarthNet.uav[44] simulationTime 259200
scalar OsgEarthNet.uav[45] utilizationSecMission 17922.750199797
scalar OsgEarthNet.uav[45] utilizationSecMaintenance 11917.790452114
scalar OsgEarthNet.uav[45] utilizationSecCharge 108490
scalar OsgEarthNet.uav[45] utilizationSecIdle 120869.45834809
scalar OsgEarthNet.uav[45] utilizationEnergyMission 82979.754362995
scalar OsgEarthNet.uav[45] utilizationEnergyMaintenance 54609.06974411
scalar OsgEarthNet.uav[45] utilizationEnergyCharge 135321.07397461
scalar OsgEarthNet.uav[45] utilizationEnergyOverdrawMission 0
scalar OsgEarthNet.uav[45] utilizationEnergyOverdrawMaintenance 0
scalar OsgEarthNet.uav[45] utilizationCountMissions 30
scalar OsgEarthNet.uav[45] utilizationCountManeuversMission 299
scalar OsgEarthNet.uav[45] utilizationCountManeuversMaintenance 61
scalar OsgEarthNet.uav[45] utilizationCountChargeState 30
scalar OsgEarthNet.uav[45] utilizationCountOverdrawnAfterMission 0
scalar OsgEarthNet.uav[45] utilizationCountIdleState 31
scalar OsgEarthNet.uav[45] utilizationFail 0
scalar OsgEarthNet.uav[45] simulationTime 259200
scalar OsgEarthNet.uav[46] utilizationSecMission 4202.2479488092
scalar OsgEarthNet.uav[46] utilizationSecMaintenance 2855.5371022591
scalar OsgEarthNet.uav[46] utilizationSecCharge 25920
scalar OsgEarthNet.uav[46] utilizationSecIdle 226222.21394893
scalar OsgEarthNet.uav[46] utilizationEnergyMission 19580.213989258
scalar OsgEarthNet.uav[46] utilizationEnergyMaintenance 13406.580535889
scalar OsgEarthNet.uav[46] utilizationEnergyCharge 32940.378417969
scalar OsgEarthNet.uav[46] utilizationEnergyOverdrawMission 0
scalar OsgEarthNet.uav[46] utilizationEnergyOverdrawMaintenance 0
scalar OsgEarthNet.uav[46] utilizationCountMissions 7
scalar OsgEarthNet.uav[46] utilizationCountManeuversMission 72
scalar OsgEarthNet.uav[46] utilizationCountManeuversMaintenance 14
scalar OsgEarthNet.uav[46] utilizationCountChargeState 7
scalar OsgEarthNet.uav[46] utilizationCountOverdrawnAfterMission 0
scalar OsgEarthNet.uav[46] utilizationCountIdleState 8
scalar OsgEarthNet.uav[46] utilizationFail 0
scalar OsgEarthNet.uav[46] simulationTime 259200
scalar OsgEarthNet.uav[47] utilizationSecMission 5466.95649156
scalar OsgEarthNet.uav[47] utilizationSecMaintenance 3438.9985473039
scalar OsgEarthNet.uav[47] utilizationSecCharge 33140
scalar OsgEarthNet.uav[47] utilizationSecIdle 217154.04396114
scalar OsgEarthNet.uav[47] utilizationEnergyMission 25092.856834412
scalar OsgEarthNet.uav[47] utilizationEnergyMaintenance 16648.239543915
scalar OsgEarthNet.uav[47] utilizationEnergyCharge 41718.865234375
scalar OsgEarthNet.uav[47] utilizationEnergyOverdrawMission 0
scalar OsgEarthNet.uav[47] utilizationEnergyOverdrawMaintenance 0
scalar OsgEarthNet.uav[47] utilizationCountMissions 9
scalar OsgEarthNet.uav[47] utilizationCountManeuversMission 93
scalar OsgEarthNet.uav[47] utilizationCountManeuversMaintenance 18
scalar OsgEarthNet.uav[47] utilizationCountChargeState 9
scalar OsgEarthNet.uav[47] utilizationCountOverdrawnAfterMission 0
scalar OsgEarthNet.uav[47] utilizationCountIdleState 10
scalar OsgEarthNet.uav[47] utilizationFail 0
scalar OsgEarthNet.uav[47] simulationTime 259200
scalar OsgEarthNet.uav[48] utilizationSecMission 694.00169469977
scalar OsgEarthNet.uav[48] utilizationSecMaintenance 282.18572599206
scalar OsgEarthNet.uav[48] utilizationSecCharge 3540
scalar OsgEarthNet.uav[48] utilizationSecIdle 254683.81157931
scalar OsgEarthNet.uav[48] utilizationEnergyMission 3090.1187591553
scalar OsgEarthNet.uav[48] utilizationEnergyMaintenance 1304.7151107788
scalar OsgEarthNet.uav[48] utilizationEnergyCharge 4376.4794921875
scalar OsgEarthNet.uav[48] utilizationEnergyOverdrawMission 0
scalar OsgEarthNet.uav[48] utilizationEnergyOverdrawMaintenance 0
scalar OsgEarthNet.uav[48] utilizationCountMissions 1
scalar OsgEarthNet.uav[48] utilizationCountManeuversMission 13
scalar OsgEarthNet.uav[48] utilizationCountManeuversMaintenance 2
scalar OsgEarthNet.uav[48] utilizationCountChargeState 1
scalar OsgEarthNet.uav[48] utilizationCountOverdrawnAfterMission 0
scalar OsgEarthNet.uav[48] utilizationCountIdleState 2
scalar OsgEarthNet.uav[48] utilizationFail 0
scalar OsgEarthNet.uav[48] simulationTime 259200
scalar OsgEarthNet.uav[49] utilizationSecMission 650.68693590098
scalar OsgEarthNet.uav[49] utilizationSecMaintenance 350.31285707965
scalar OsgEarthNet.uav[49] utilizationSecCharge 3700
scalar OsgEarthNet.uav[49] utilizationSecIdle 254498.99920702
scalar OsgEarthNet.uav[49] utilizationEnergyMission 3025.9237670898
scalar OsgEarthNet.uav[49] utilizationEnergyMaintenance 1635.2389755249
scalar OsgEarthNet.uav[49] utilizationEnergyCharge 4661.1694335938
scalar OsgEarthNet.uav[49] utilizationEnergyOverdrawMission 0
scalar OsgEarthNet.uav[49] utilizationEnergyOverdrawMaintenance 0
scalar OsgEarthNet.uav[49] utilizationCountMissions 1
scalar OsgEarthNet.uav[49] utilizationCountManeuversMission 9
scalar OsgEarthNet.uav[49] utilizationCountManeuversMaintenance 2
scalar OsgEarthNet.uav[49] utilizationCountChargeState 1
scalar OsgEarthNet.uav[49] utilizationCountOverdrawnAfterMission 0
scalar OsgEarthNet.uav[49] utilizationCountIdleState 2
scalar OsgEarthNet.uav[49] utilizationFail 0
scalar OsgEarthNet.uav[49] simulationTime 259200
scalar OsgEarthNet.uav[50] utilizationSecMission 536.06111026321
scalar OsgEarthNet.uav[50] utilizationSecMaintenance 387.76056727994
scalar OsgEarthNet.uav[50] utilizationSecCharge 3520
scalar OsgEarthNet.uav[50] utilizationSecIdle 254756.17732246
scalar OsgEarthNet.uav[50] utilizationEnergyMission 2532.9467773438
scalar OsgEarthNet.uav[50] utilizationEnergyMaintenance 1817.2416000366
scalar OsgEarthNet.uav[50] utilizationEnergyCharge 4350.18359375
scalar OsgEarthNet.uav[50] utilizationEnergyOverdrawMission 0
scalar OsgEarthNet.uav[50] utilizationEnergyOverdrawMaintenance 0
scalar OsgEarthNet.uav[50] utilizationCountMissions 1
scalar OsgEarthNet.uav[50] utilizationCountManeuversMission 8
scalar OsgEarthNet.uav[50] utilizationCountManeuversMaintenance 2
scalar OsgEarthNet.uav[50] utilizationCountChargeState 1
scalar OsgEarthNet.uav[50] utilizationCountOverdrawnAfterMission 0
scalar OsgEarthNet.uav[50] utilizationCountIdleState 2
scalar OsgEarthNet.uav[50] utilizationFail 0
scalar OsgEarthNet.uav[50] simulationTime 259200
scalar OsgEarthNet.uav[51] utilizationSecMission 17615.50328072
scalar OsgEarthNet.uav[51] utilizationSecMaintenance 14006.416574385
scalar OsgEarthNet.uav[51] utilizationSecCharge 115803.72750647
scalar OsgEarthNet.uav[51] utilizationSecIdle 111774.35163843
scalar OsgEarthNet.uav[51] utilizationEnergyMission 81067.630638123
scalar OsgEarthNet.uav[51] utilizationEnergyMaintenance 65880.039520264
scalar OsgEarthNet.uav[51] utilizationEnergyCharge 146591.97070312
scalar OsgEarthNet.uav[51] utilizationEnergyOverdrawMission 0
scalar OsgEarthNet.uav[51] utilizationEnergyOverdrawMaintenance 0
scalar OsgEarthNet.uav[51] utilizationCountMissions 32
scalar OsgEarthNet.uav[51] utilizationCountManeuversMission 297
scalar OsgEarthNet.uav[51] utilizationCountManeuversMaintenance 64
scalar OsgEarthNet.uav[51] utilizationCountChargeState 32
scalar OsgEarthNet.uav[51] utilizationCountOverdrawnAfterMission 0
scalar OsgEarthNet.uav[51] utilizationCountIdleState 32
scalar OsgEarthNet.uav[51] utilizationFail 0
scalar OsgEarthNet.uav[51] simulationTime 259200
scalar OsgEarthNet.uav[52] utilizationSecMission 29896.189880398
scalar OsgEarthNet.uav[52] utilizationSecMaintenance 18444.575360958
scalar OsgEarthNet.uav[52] utilizationSecCharge 174777.23375864
scalar OsgEarthNet.uav[52] utilizationSecIdle 36082
scalar OsgEarthNet.uav[52] utilizationEnergyMission 137698.59067579
scalar OsgEarthNet.uav[52] utilizationEnergyMaintenance 85555.574386597
scalar OsgEarthNet.uav[52] utilizationEnergyCharge 219732.6083374
scalar OsgEarthNet.uav[52] utilizationEnergyOverdrawMission 0
scalar OsgEarthNet.uav[52] utilizationEnergyOverdrawMaintenance 0
scalar OsgEarthNet.uav[52] utilizationCountMissions 49
scalar OsgEarthNet.uav[52] utilizationCountManeuversMission 481
scalar OsgEarthNet.uav[52] utilizationCountManeuversMaintenance 97
scalar OsgEarthNet.uav[52] utilizationCountChargeState 49
scalar OsgEarthNet.uav[52] utilizationCountOverdrawnAfterMission 0
scalar OsgEarthNet.uav[52] utilizationCountIdleState 49
scalar OsgEarthNet.uav[52] utilizationFail 0
scalar OsgEarthNet.uav[52] simulationTime 259200
scalar OsgEarthNet.uav[53] utilizationSecMission 313.66140879233
scalar OsgEarthNet.uav[53] utilizationSecMaintenance 473.03391658586
scalar OsgEarthNet.uav[53] utilizationSecCharge 3160
scalar OsgEarthNet.uav[53] utilizationSecIdle 255253.30367462
scalar OsgEarthNet.uav[53] utilizationEnergyMission 1561.6110839844
scalar OsgEarthNet.uav[53] utilizationEnergyMaintenance 2190.5500106812
scalar OsgEarthNet.uav[53] utilizationEnergyCharge 3752.1586914062
scalar OsgEarthNet.uav[53] utilizationEnergyOverdrawMission 0
scalar OsgEarthNet.uav[53] utilizationEnergyOverdrawMaintenance 0
scalar OsgEarthNet.uav[53] utilizationCountMissions 1
scalar OsgEarthNet.uav[53] utilizationCountManeuversMission 5
scalar OsgEarthNet.uav[53] utilizationCountManeuversMaintenance 2
scalar OsgEarthNet.uav[53] utilizationCountChargeState 1
scalar OsgEarthNet.uav[53] utilizationCountOverdrawnAfterMission 0
scalar OsgEarthNet.uav[53] utilizationCountIdleState 2
scalar OsgEarthNet.uav[53] utilizationFail 0
scalar OsgEarthNet.uav[53] simulationTime 259200
scalar OsgEarthNet.uav[54] utilizationSecMission 990.26017317364
scalar OsgEarthNet.uav[54] utilizationSecMaintenance 962.99571492126
scalar OsgEarthNet.uav[54] utilizationSecCharge 7280
scalar OsgEarthNet.uav[54] utilizationSecIdle 249966.74311191
scalar OsgEarthNet.uav[54] utilizationEnergyMission 4717.7967224121
scalar OsgEarthNet.uav[54] utilizationEnergyMaintenance 4442.331577301
scalar OsgEarthNet.uav[54] utilizationEnergyCharge 9160.125
scalar OsgEarthNet.uav[54] utilizationEnergyOverdrawMission 0
scalar OsgEarthNet.uav[54] utilizationEnergyOverdrawMaintenance 0
scalar OsgEarthNet.uav[54] utilizationCountMissions 2
scalar OsgEarthNet.uav[54] utilizationCountManeuversMission 16
scalar OsgEarthNet.uav[54] utilizationCountManeuversMaintenance 4
scalar OsgEarthNet.uav[54] utilizationCountChargeState 2
scalar OsgEarthNet.uav[54] utilizationCountOverdrawnAfterMission 0
scalar OsgEarthNet.uav[54] utilizationCountIdleState 3
scalar OsgEarthNet.uav[54] utilizationFail 0
scalar OsgEarthNet.uav[54] simulationTime 259200
scalar OsgEarthNet.uav[55] utilizationSecMission 26306.897051388
scalar OsgEarthNet.uav[55] utilizationSecMaintenance 16134.137272637
scalar OsgEarthNet.uav[55] utilizationSecCharge 151922.61445515
scalar OsgEarthNet.uav[55] utilizationSecIdle 64836.350220821
scalar OsgEarthNet.uav[55] utilizationEnergyMission 120128.42041016
scalar OsgEarthNet.uav[55] utilizationEnergyMaintenance 74415.532371521
scalar OsgEarthNet.uav[55] utilizationEnergyCharge 192035.84204102
scalar OsgEarthNet.uav[55] utilizationEnergyOverdrawMission 0
scalar OsgEarthNet.uav[55] utilizationEnergyOverdrawMaintenance 0
scalar OsgEarthNet.uav[55] utilizationCountMissions 42
scalar OsgEarthNet.uav[55] utilizationCountManeuversMission 426
scalar OsgEarthNet.uav[55] utilizationCountManeuversMaintenance 84
scalar OsgEarthNet.uav[55] utilizationCountChargeState 42
scalar OsgEarthNet.uav[55] utilizationCountOverdrawnAfterMission 0
scalar OsgEarthNet.uav[55] utilizationCountIdleState 42
scalar OsgEarthNet.uav[55] utilizationFail 0
scalar OsgEarthNet.uav[55] simulationTime 259200
scalar OsgEarthNet.uav[56] utilizationSecMission 23610.95597605
scalar OsgEarthNet.uav[56] utilizationSecMaintenance 15343.146297637
scalar OsgEarthNet.uav[56] utilizationSecCharge 141500
scalar OsgEarthNet.uav[56] utilizationSecIdle 78745.896726312
scalar OsgEarthNet.uav[56] utilizationEnergyMission 108697.45419686
scalar OsgEarthNet.uav[56] utilizationEnergyMaintenance 71552.791042328
scalar OsgEarthNet.uav[56] utilizationEnergyCharge 176944.32568359
scalar OsgEarthNet.uav[56] utilizationEnergyOverdrawMission 0
scalar OsgEarthNet.uav[56] utilizationEnergyOverdrawMaintenance 0
scalar OsgEarthNet.uav[56] utilizationCountMissions 39
scalar OsgEarthNet.uav[56] utilizationCountManeuversMission 387
scalar OsgEarthNet.uav[56] utilizationCountManeuversMaintenance 79
scalar OsgEarthNet.uav[56] utilizationCountChargeState 39
scalar OsgEarthNet.uav[56] utilizationCountOverdrawnAfterMission 0
scalar OsgEarthNet.uav[56] utilizationCountIdleState 40
scalar OsgEarthNet.uav[56] utilizationFail 0
scalar OsgEarthNet.uav[56] simulationTime 259200
scalar OsgEarthNet.uav[57] utilizationSecMission 8222.6152519975
scalar OsgEarthNet.uav[57] utilizationSecMaintenance 4796.3292809509
scalar OsgEarthNet.uav[57] utilizationSecCharge 48000
scalar OsgEarthNet.uav[57] utilizationSecIdle 198181.05446705
scalar OsgEarthNet.uav[57] utilizationEnergyMission 38035.691101074
scalar OsgEarthNet.uav[57] utilizationEnergyMaintenance 22238.842266083
scalar OsgEarthNet.uav[57] utilizationEnergyCharge 60305.186035156
scalar OsgEarthNet.uav[57] utilizationEnergyOverdrawMission 0
scalar OsgEarthNet.uav[57] utilizationEnergyOverdrawMaintenance 0
scalar OsgEarthNet.uav[57] utilizationCountMissions 13
scalar OsgEarthNet.uav[57] utilizationCountManeuversMission 141
scalar OsgEarthNet.uav[57] utilizationCountManeuversMaintenance 26
scalar OsgEarthNet.uav[57] utilizationCountChargeState 13
scalar OsgEarthNet.uav[57] utilizationCountOverdrawnAfterMission 0
scalar OsgEarthNet.uav[57] utilizationCountIdleState 14
scalar OsgEarthNet.uav[57] utilizationFail 0
scalar OsgEarthNet.uav[57] simulationTime 259200
scalar OsgEarthNet.uav[58] utilizationSecMission 4677.8347439784
scalar OsgEarthNet.uav[58] utilizationSecMaintenance 3134.7746734879
scalar OsgEarthNet.uav[58] utilizationSecCharge 28800
scalar OsgEarthNet.uav[58] utilizationSecIdle 222587.38958253
scalar OsgEarthNet.uav[58] utilizationEnergyMission 22035.620819092
scalar OsgEarthNet.uav[58] utilizationEnergyMaintenance 13935.613861084
scalar OsgEarthNet.uav[58] utilizationEnergyCharge 35971.231201172
scalar OsgEarthNet.uav[58] utilizationEnergyOverdrawMission 0
scalar OsgEarthNet.uav[58] utilizationEnergyOverdrawMaintenance 0
scalar OsgEarthNet.uav[58] utilizationCountMissions 8
scalar OsgEarthNet.uav[58] utilizationCountManeuversMission 71
scalar OsgEarthNet.uav[58] utilizationCountManeuversMaintenance 16
scalar OsgEarthNet.uav[58] utilizationCountChargeState 8
scalar OsgEarthNet.uav[58] utilizationCountOverdrawnAfterMission 0
scalar OsgEarthNet.uav[58] utilizationCountIdleState 9
scalar OsgEarthNet.uav[58] utilizationFail 0
scalar OsgEarthNet.uav[58] simulationTime 259200
scalar OsgEarthNet.uav[59] utilizationSecMission 21827.281195886
scalar OsgEarthNet.uav[59] utilizationSecMaintenance 14846.194925607
scalar OsgEarthNet.uav[59] utilizationSecCharge 134510
scalar OsgEarthNet.uav[59] utilizationSecIdle 88016.522878507
scalar OsgEarthNet.uav[59] utilizationEnergyMission 101738.70259094
scalar OsgEarthNet.uav[59] utilizationEnergyMaintenance 66521.427284137
scalar OsgEarthNet.uav[59] utilizationEnergyCharge 168341.10253906
scalar OsgEarthNet.uav[59] utilizationEnergyOverdrawMission 0
scalar OsgEarthNet.uav[59] utilizationEnergyOverdrawMaintenance 0
scalar OsgEarthNet.uav[59] utilizationCountMissions 37
scalar OsgEarthNet.uav[59] utilizationCountManeuversMission 346
scalar OsgEarthNet.uav[59] utilizationCountManeuversMaintenance 75
scalar OsgEarthNet.uav[59] utilizationCountChargeState 37
scalar OsgEarthNet.uav[59] utilizationCountOverdrawnAfterMission 0
scalar OsgEarthNet.uav[59] utilizationCountIdleState 38
scalar OsgEarthNet.uav[59] utilizationFail 0
scalar OsgEarthNet.uav[59] simulationTime 259200
scalar OsgEarthNet.uav[60] utilizationSecMission 382.04631628134
scalar OsgEarthNet.uav[60] utilizationSecMaintenance 608.70117999726
scalar OsgEarthNet.uav[60] utilizationSecCharge 3630
scalar OsgEarthNet.uav[60] utilizationSecIdle 254579.25150372
scalar OsgEarthNet.uav[60] utilizationEnergyMission 1737.7528457642
scalar OsgEarthNet.uav[60] utilizationEnergyMaintenance 2839.6608009338
scalar OsgEarthNet.uav[60] utilizationEnergyCharge 4577.4184570312
scalar OsgEarthNet.uav[60] utilizationEnergyOverdrawMission 0
scalar OsgEarthNet.uav[60] utilizationEnergyOverdrawMaintenance 0
scalar OsgEarthNet.uav[60] utilizationCountMissions 1
scalar OsgEarthNet.uav[60] utilizationCountManeuversMission 7
scalar OsgEarthNet.uav[60] utilizationCountManeuversMaintenance 2
scalar OsgEarthNet.uav[60] utilizationCountChargeState 1
scalar OsgEarthNet.uav[60] utilizationCountOverdrawnAfterMission 0
scalar OsgEarthNet.uav[60] utilizationCountIdleState 2
scalar OsgEarthNet.uav[60] utilizationFail 0
scalar OsgEarthNet.uav[60] simulationTime 259200
scalar OsgEarthNet.uav[61] utilizationSecMission 4728.3517692466
scalar OsgEarthNet.uav[61] utilizationSecMaintenance 3311.4382168646
scalar OsgEarthNet.uav[61] utilizationSecCharge 25568.121791073
scalar OsgEarthNet.uav[61] utilizationSecIdle 225592.08722282
scalar OsgEarthNet.uav[61] utilizationEnergyMission 21896.566719055
scalar OsgEarthNet.uav[61] utilizationEnergyMaintenance 14998.130615234
scalar OsgEarthNet.uav[61] utilizationEnergyCharge 32260.636535645
scalar OsgEarthNet.uav[61] utilizationEnergyOverdrawMission 0
scalar OsgEarthNet.uav[61] utilizationEnergyOverdrawMaintenance 0
scalar OsgEarthNet.uav[61] utilizationCountMissions 8
scalar OsgEarthNet.uav[61] utilizationCountManeuversMission 80
scalar OsgEarthNet.uav[61] utilizationCountManeuversMaintenance 16
scalar OsgEarthNet.uav[61] utilizationCountChargeState 8
scalar OsgEarthNet.uav[61] utilizationCountOverdrawnAfterMission 0
scalar OsgEarthNet.uav[61] utilizationCountIdleState 7
scalar OsgEarthNet.uav[61] utilizationFail 0
scalar OsgEarthNet.uav[61] simulationTime 259200
scalar OsgEarthNet.uav[62] utilizationSecMission 13375.922986097
scalar OsgEarthNet.uav[62] utilizationSecMaintenance 8633.9588659469
scalar OsgEarthNet.uav[62] utilizationSecCharge 79076.591816724
scalar OsgEarthNet.uav[62] utilizationSecIdle 158113.52533123
scalar OsgEarthNet.uav[62] utilizationEnergyMission 61496.213798523
scalar OsgEarthNet.uav[62] utilizationEnergyMaintenance 40164.024242401
scalar OsgEarthNet.uav[62] utilizationEnergyCharge 100631.98095703
scalar OsgEarthNet.uav[62] utilizationEnergyOverdrawMission 0
scalar OsgEarthNet.uav[62] utilizationEnergyOverdrawMaintenance 0
scalar OsgEarthNet.uav[62] utilizationCountMissions 22
scalar OsgEarthNet.uav[62] utilizationCountManeuversMission 220
scalar OsgEarthNet.uav[62] utilizationCountManeuversMaintenance 44
scalar OsgEarthNet.uav[62] utilizationCountChargeState 22
scalar OsgEarthNet.uav[62] utilizationCountOverdrawnAfterMission 0
scalar OsgEarthNet.uav[62] utilizationCountIdleState 22
scalar OsgEarthNet.uav[62] utilizationFail 0
scalar OsgEarthNet.uav[62] simulationTime 259200
scalar OsgEarthNet.uav[63] utilizationSecMission 5058.067662683
scalar OsgEarthNet.uav[63] utilizationSecMaintenance 3661.3511454646
scalar OsgEarthNet.uav[63] utilizationSecCharge 32229.671736548
scalar OsgEarthNet.uav[63] utilizationSecIdle 218250.9084553
scalar OsgEarthNet.uav[63] utilizationEnergyMission 23657.086456299
scalar OsgEarthNet.uav[63] utilizationEnergyMaintenance 16779.272758484
scalar OsgEarthNet.uav[63] utilizationEnergyCharge 40386.296630859
scalar OsgEarthNet.uav[63] utilizationEnergyOverdrawMission 0
scalar OsgEarthNet.uav[63] utilizationEnergyOverdrawMaintenance 0
scalar OsgEarthNet.uav[63] utilizationCountMissions 9
scalar OsgEarthNet.uav[63] utilizationCountManeuversMission 80
scalar OsgEarthNet.uav[63] utilizationCountManeuversMaintenance 18
scalar OsgEarthNet.uav[63] utilizationCountChargeState 9
scalar OsgEarthNet.uav[63] utilizationCountOverdrawnAfterMission 0
scalar OsgEarthNet.uav[63] utilizationCountIdleState 9
scalar OsgEarthNet.uav[63] utilizationFail 0
scalar OsgEarthNet.uav[63] simulationTime 259200
scalar OsgEarthNet.uav[64] utilizationSecMission 7423.876919123
scalar OsgEarthNet.uav[64] utilizationSecMaintenance 7024.9976592512
scalar OsgEarthNet.uav[64] utilizationSecCharge 53200
scalar OsgEarthNet.uav[64] utilizationSecIdle 191551.12442163
scalar OsgEarthNet.uav[64] utilizationEnergyMission 34516.254417419
scalar OsgEarthNet.uav[64] utilizationEnergyMaintenance 31658.821807861
scalar OsgEarthNet.uav[64] utilizationEnergyCharge 66104.614746094
scalar OsgEarthNet.uav[64] utilizationEnergyOverdrawMission 0
scalar OsgEarthNet.uav[64] utilizationEnergyOverdrawMaintenance 0
scalar OsgEarthNet.uav[64] utilizationCountMissions 15
scalar OsgEarthNet.uav[64] utilizationCountManeuversMission 122
scalar OsgEarthNet.uav[64] utilizationCountManeuversMaintenance 30
scalar OsgEarthNet.uav[64] utilizationCountChargeState 15
scalar OsgEarthNet.uav[64] utilizationCountOverdrawnAfterMission 0
scalar OsgEarthNet.uav[64] utilizationCountIdleState 16
scalar OsgEarthNet.uav[64] utilizationFail 0
scalar OsgEarthNet.uav[64] simulationTime 259200
scalar OsgEarthNet.uav[65] utilizationSecMission 12517.089204231
scalar OsgEarthNet.uav[65] utilizationSecMaintenance 10037.620767967
scalar OsgEarthNet.uav[65] utilizationSecCharge 83340
scalar OsgEarthNet.uav[65] utilizationSecIdle 153305.2890278
scalar OsgEarthNet.uav[65] utilizationEnergyMission 57877.945068359
scalar OsgEarthNet.uav[65] utilizationEnergyMaintenance 47194.130882263
scalar OsgEarthNet.uav[65] utilizationEnergyCharge 104876.88085938
scalar OsgEarthNet.uav[65] utilizationEnergyOverdrawMission 0
scalar OsgEarthNet.uav[65] utilizationEnergyOverdrawMaintenance 0
scalar OsgEarthNet.uav[65] utilizationCountMissions 23
scalar OsgEarthNet.uav[65] utilizationCountManeuversMission 203
scalar OsgEarthNet.uav[65] utilizationCountManeuversMaintenance 46
scalar OsgEarthNet.uav[65] utilizationCountChargeState 23
scalar OsgEarthNet.uav[65] utilizationCountOverdrawnAfterMission 0
scalar OsgEarthNet.uav[65] utilizationCountIdleState 23
scalar OsgEarthNet.uav[65] utilizationFail 0
scalar OsgEarthNet.uav[65] simulationTime 259200
scalar OsgEarthNet.uav[66] utilizationSecMission 19013.091574633
scalar OsgEarthNet.uav[66] utilizationSecMaintenance 12155.007827293
scalar OsgEarthNet.uav[66] utilizationSecCharge 114644.12441518
scalar OsgEarthNet.uav[66] utilizationSecIdle 113387.7751829
scalar OsgEarthNet.uav[66] utilizationEnergyMission 86696.28792572
scalar OsgEarthNet.uav[66] utilizationEnergyMaintenance 57428.403743744
scalar OsgEarthNet.uav[66] utilizationEnergyCharge 143848.50146484
scalar OsgEarthNet.uav[66] utilizationEnergyOverdrawMission 0
scalar OsgEarthNet.uav[66] utilizationEnergyOverdrawMaintenance 0
scalar OsgEarthNet.uav[66] utilizationCountMissions 32
scalar OsgEarthNet.uav[66] utilizationCountManeuversMission 314
scalar OsgEarthNet.uav[66] utilizationCountManeuversMaintenance 64
scalar OsgEarthNet.uav[66] utilizationCountChargeState 32
scalar OsgEarthNet.uav[66] utilizationCountOverdrawnAfterMission 0
scalar OsgEarthNet.uav[66] utilizationCountIdleState 29
scalar OsgEarthNet.uav[66] utilizationFail 0
scalar OsgEarthNet.uav[66] simulationTime 259200
scalar OsgEarthNet.uav[67] utilizationSecMission 20902.466029487
scalar OsgEarthNet.uav[67] utilizationSecMaintenance 13960.257908567
scalar OsgEarthNet.uav[67] utilizationSecCharge 124962.08012657
scalar OsgEarthNet.uav[67] utilizationSecIdle 99375.194935375
scalar OsgEarthNet.uav[67] utilizationEnergyMission 96885.75415802
scalar OsgEarthNet.uav[67] utilizationEnergyMaintenance 64675.506656647
scalar OsgEarthNet.uav[67] utilizationEnergyCharge 158165.62475586
scalar OsgEarthNet.uav[67] utilizationEnergyOverdrawMission 0
scalar OsgEarthNet.uav[67] utilizationEnergyOverdrawMaintenance 0
scalar OsgEarthNet.uav[67] utilizationCountMissions 35
scalar OsgEarthNet.uav[67] utilizationCountManeuversMission 342
scalar OsgEarthNet.uav[67] utilizationCountManeuversMaintenance 70
scalar OsgEarthNet.uav[67] utilizationCountChargeState 35
scalar OsgEarthNet.uav[67] utilizationCountOverdrawnAfterMission 0
scalar OsgEarthNet.uav[67] utilizationCountIdleState 33
scalar OsgEarthNet.uav[67] utilizationFail 0
scalar OsgEarthNet.uav[67] simulationTime 259200
scalar OsgEarthNet.uav[68] utilizationSecMission 23010.344905411
scalar OsgEarthNet.uav[68] utilizationSecMaintenance 15717.19575581
scalar OsgEarthNet.uav[68] utilizationSecCharge 141480
scalar OsgEarthNet.uav[68] utilizationSecIdle 78992.458338779
scalar OsgEarthNet.uav[68] utilizationEnergyMission 105988.32002258
scalar OsgEarthNet.uav[68] utilizationEnergyMaintenance 72676.941062927
scalar OsgEarthNet.uav[68] utilizationEnergyCharge 178874.73608398
scalar OsgEarthNet.uav[68] utilizationEnergyOverdrawMission 0
scalar OsgEarthNet.uav[68] utilizationEnergyOverdrawMaintenance 0
scalar OsgEarthNet.uav[68] utilizationCountMissions 39
scalar OsgEarthNet.uav[68] utilizationCountManeuversMission 386
scalar OsgEarthNet.uav[68] utilizationCountManeuversMaintenance 78
scalar OsgEarthNet.uav[68] utilizationCountChargeState 39
scalar OsgEarthNet.uav[68] utilizationCountOverdrawnAfterMission 0
scalar OsgEarthNet.uav[68] utilizationCountIdleState 36
scalar OsgEarthNet.uav[68] utilizationFail 0
scalar OsgEarthNet.uav[68] simulationTime 259200
scalar OsgEarthNet.uav[69] utilizationSecMission 26218.076668239
scalar OsgEarthNet.uav[69] utilizationSecMaintenance 18566.780346626
scalar OsgEarthNet.uav[69] utilizationSecCharge 163070
scalar OsgEarthNet.uav[69] utilizationSecIdle 51345.141985135
scalar OsgEarthNet.uav[69] utilizationEnergyMission 120054.75558472
scalar OsgEarthNet.uav[69] utilizationEnergyMaintenance 85616.613430023
scalar OsgEarthNet.uav[69] utilizationEnergyCharge 205303.73535156
scalar OsgEarthNet.uav[69] utilizationEnergyOverdrawMission 0
scalar OsgEarthNet.uav[69] utilizationEnergyOverdrawMaintenance 0
scalar OsgEarthNet.uav[69] utilizationCountMissions 45
scalar OsgEarthNet.uav[69] utilizationCountManeuversMission 428
scalar OsgEarthNet.uav[69] utilizationCountManeuversMaintenance 90
scalar OsgEarthNet.uav[69] utilizationCountChargeState 45
scalar OsgEarthNet.uav[69] utilizationCountOverdrawnAfterMission 0
scalar OsgEarthNet.uav[69] utilizationCountIdleState 42
scalar OsgEarthNet.uav[69] utilizationFail 0
scalar OsgEarthNet.uav[69] simulationTime 259200
scalar OsgEarthNet.uav[70] utilizationSecMission 26436.939983651
scalar OsgEarthNet.uav[70] utilizationSecMaintenance 18752.706691153
scalar OsgEarthNet.uav[70] utilizationSecCharge 163978.93490913
scalar OsgEarthNet.uav[70] utilizationSecIdle 50031.417416067
scalar OsgEarthNet.uav[70] utilizationEnergyMission 122527.76148987
scalar OsgEarthNet.uav[70] utilizationEnergyMaintenance 87507.940608978
scalar OsgEarthNet.uav[70] utilizationEnergyCharge 207444.81860352
scalar OsgEarthNet.uav[70] utilizationEnergyOverdrawMission 0
scalar OsgEarthNet.uav[70] utilizationEnergyOverdrawMaintenance 0
scalar OsgEarthNet.uav[70] utilizationCountMissions 46
scalar OsgEarthNet.uav[70] utilizationCountManeuversMission 444
scalar OsgEarthNet.uav[70] utilizationCountManeuversMaintenance 92
scalar OsgEarthNet.uav[70] utilizationCountChargeState 46
scalar OsgEarthNet.uav[70] utilizationCountOverdrawnAfterMission 0
scalar OsgEarthNet.uav[70] utilizationCountIdleState 42
scalar OsgEarthNet.uav[70] utilizationFail 0
scalar OsgEarthNet.uav[70] simulationTime 259200
scalar OsgEarthNet.uav[71] utilizationSecMission 24322.455695465
scalar OsgEarthNet.uav[71] utilizationSecMaintenance 21604.840640666
scalar OsgEarthNet.uav[71] utilizationSecCharge 167168.94364168
scalar OsgEarthNet.uav[71] utilizationSecIdle 46103.759022191
scalar OsgEarthNet.uav[71] utilizationEnergyMission 112548.74164581
scalar OsgEarthNet.uav[71] utilizationEnergyMaintenance 99667.644062042
scalar OsgEarthNet.uav[71] utilizationEnergyCharge 209533.9901123
scalar OsgEarthNet.uav[71] utilizationEnergyOverdrawMission 0
scalar OsgEarthNet.uav[71] utilizationEnergyOverdrawMaintenance 0
scalar OsgEarthNet.uav[71] utilizationCountMissions 47
scalar OsgEarthNet.uav[71] utilizationCountManeuversMission 403
scalar OsgEarthNet.uav[71] utilizationCountManeuversMaintenance 94
scalar OsgEarthNet.uav[71] utilizationCountChargeState 47
scalar OsgEarthNet.uav[71] utilizationCountOverdrawnAfterMission 0
scalar OsgEarthNet.uav[71] utilizationCountIdleState 45
scalar OsgEarthNet.uav[71] utilizationFail 0
scalar OsgEarthNet.uav[71] simulationTime 259200
scalar OsgEarthNet.uav[72] utilizationSecMission 29948.153964689
scalar OsgEarthNet.uav[72] utilizationSecMaintenance 17747.06572335
scalar OsgEarthNet.uav[72] utilizationSecCharge 170797.32904793
scalar OsgEarthNet.uav[72] utilizationSecIdle 40707.450264031
scalar OsgEarthNet.uav[72] utilizationEnergyMission 137571.37044144
scalar OsgEarthNet.uav[72] utilizationEnergyMaintenance 81041.031551361
scalar OsgEarthNet.uav[72] utilizationEnergyCharge 215085.5925293
scalar OsgEarthNet.uav[72] utilizationEnergyOverdrawMission 0
scalar OsgEarthNet.uav[72] utilizationEnergyOverdrawMaintenance 0
scalar OsgEarthNet.uav[72] utilizationCountMissions 48
scalar OsgEarthNet.uav[72] utilizationCountManeuversMission 493
scalar OsgEarthNet.uav[72] utilizationCountManeuversMaintenance 96
scalar OsgEarthNet.uav[72] utilizationCountChargeState 48
scalar OsgEarthNet.uav[72] utilizationCountOverdrawnAfterMission 0
scalar OsgEarthNet.uav[72] utilizationCountIdleState 45
scalar OsgEarthNet.uav[72] utilizationFail 0
scalar OsgEarthNet.uav[72] simulationTime 259200
scalar OsgEarthNet.uav[73] utilizationSecMission 27075.024267435
scalar OsgEarthNet.uav[73] utilizationSecMaintenance 19600.232904471
scalar OsgEarthNet.uav[73] utilizationSecCharge 169809.0019199
scalar OsgEarthNet.uav[73] utilizationSecIdle 42715.739908191
scalar OsgEarthNet.uav[73] utilizationEnergyMission 126214.53926086
scalar OsgEarthNet.uav[73] utilizationEnergyMaintenance 89733.100028992
scalar OsgEarthNet.uav[73] utilizationEnergyCharge 214391.39453125
scalar OsgEarthNet.uav[73] utilizationEnergyOverdrawMission 0
scalar OsgEarthNet.uav[73] utilizationEnergyOverdrawMaintenance 0
scalar OsgEarthNet.uav[73] utilizationCountMissions 48
scalar OsgEarthNet.uav[73] utilizationCountManeuversMission 433
scalar OsgEarthNet.uav[73] utilizationCountManeuversMaintenance 96
scalar OsgEarthNet.uav[73] utilizationCountChargeState 48
scalar OsgEarthNet.uav[73] utilizationCountOverdrawnAfterMission 0
scalar OsgEarthNet.uav[73] utilizationCountIdleState 42
scalar OsgEarthNet.uav[73] utilizationFail 0
scalar OsgEarthNet.uav[73] simulationTime 259200
scalar OsgEarthNet.uav[74] utilizationSecMission 28725.801332792
scalar OsgEarthNet.uav[74] utilizationSecMaintenance 22382.197667208
scalar OsgEarthNet.uav[74] utilizationSecCharge 183220
scalar OsgEarthNet.uav[74] utilizationSecIdle 24872
scalar OsgEarthNet.uav[74] utilizationEnergyMission 131167.06335963
scalar OsgEarthNet.uav[74] utilizationEnergyMaintenance 102199.12869644
scalar OsgEarthNet.uav[74] utilizationEnergyCharge 231749.84619141
scalar OsgEarthNet.uav[74] utilizationEnergyOverdrawMission 0
scalar OsgEarthNet.uav[74] utilizationEnergyOverdrawMaintenance 0
scalar OsgEarthNet.uav[74] utilizationCountMissions 51
scalar OsgEarthNet.uav[74] utilizationCountManeuversMission 480
scalar OsgEarthNet.uav[74] utilizationCountManeuversMaintenance 102
scalar OsgEarthNet.uav[74] utilizationCountChargeState 51
scalar OsgEarthNet.uav[74] utilizationCountOverdrawnAfterMission 0
scalar OsgEarthNet.uav[74] utilizationCountIdleState 37
scalar OsgEarthNet.uav[74] utilizationFail 0
scalar OsgEarthNet.uav[74] simulationTime 259200
scalar OsgEarthNet.uav[75] utilizationSecMission 27721.193083967
scalar OsgEarthNet.uav[75] utilizationSecMaintenance 22188.10547439
scalar OsgEarthNet.uav[75] utilizationSecCharge 181080
scalar OsgEarthNet.uav[75] utilizationSecIdle 28210.700441643
scalar OsgEarthNet.uav[75] utilizationEnergyMission 128394.70748138
scalar OsgEarthNet.uav[75] utilizationEnergyMaintenance 102168.78294859
scalar OsgEarthNet.uav[75] utilizationEnergyCharge 228450.51464844
scalar OsgEarthNet.uav[75] utilizationEnergyOverdrawMission 0
scalar OsgEarthNet.uav[75] utilizationEnergyOverdrawMaintenance 0
scalar OsgEarthNet.uav[75] utilizationCountMissions 51
scalar OsgEarthNet.uav[75] utilizationCountManeuversMission 446
scalar OsgEarthNet.uav[75] utilizationCountManeuversMaintenance 103
scalar OsgEarthNet.uav[75] utilizationCountChargeState 51
scalar OsgEarthNet.uav[75] utilizationCountOverdrawnAfterMission 0
scalar OsgEarthNet.uav[75] utilizationCountIdleState 37
scalar OsgEarthNet.uav[75] utilizationFail 0
scalar OsgEarthNet.uav[75] simulationTime 259200
scalar OsgEarthNet.uav[76] utilizationSecMission 31865.98171131
scalar OsgEarthNet.uav[76] utilizationSecMaintenance 19101.877475546
scalar OsgEarthNet.uav[76] utilizationSecCharge 183330
scalar OsgEarthNet.uav[76] utilizationSecIdle 24902.139813144
scalar OsgEarthNet.uav[76] utilizationEnergyMission 146991.03733063
scalar OsgEarthNet.uav[76] utilizationEnergyMaintenance 89828.968084125
scalar OsgEarthNet.uav[76] utilizationEnergyCharge 232103.46728516
scalar OsgEarthNet.uav[76] utilizationEnergyOverdrawMission 0
scalar OsgEarthNet.uav[76] utilizationEnergyOverdrawMaintenance 0
scalar OsgEarthNet.uav[76] utilizationCountMissions 51
scalar OsgEarthNet.uav[76] utilizationCountManeuversMission 523
scalar OsgEarthNet.uav[76] utilizationCountManeuversMaintenance 102
scalar OsgEarthNet.uav[76] utilizationCountChargeState 50
scalar OsgEarthNet.uav[76] utilizationCountOverdrawnAfterMission 0
scalar OsgEarthNet.uav[76] utilizationCountIdleState 38
scalar OsgEarthNet.uav[76] utilizationFail 0
scalar OsgEarthNet.uav[76] simulationTime 259200
scalar OsgEarthNet.uav[77] utilizationSecMission 29010.012916036
scalar OsgEarthNet.uav[77] utilizationSecMaintenance 21895.937199036
scalar OsgEarthNet.uav[77] utilizationSecCharge 185285.69627766
scalar OsgEarthNet.uav[77] utilizationSecIdle 23008.352607263
scalar OsgEarthNet.uav[77] utilizationEnergyMission 134573.55981445
scalar OsgEarthNet.uav[77] utilizationEnergyMaintenance 101865.48989105
scalar OsgEarthNet.uav[77] utilizationEnergyCharge 233879.89941406
scalar OsgEarthNet.uav[77] utilizationEnergyOverdrawMission 0
scalar OsgEarthNet.uav[77] utilizationEnergyOverdrawMaintenance 0
scalar OsgEarthNet.uav[77] utilizationCountMissions 52
scalar OsgEarthNet.uav[77] utilizationCountManeuversMission 469
scalar OsgEarthNet.uav[77] utilizationCountManeuversMaintenance 104
scalar OsgEarthNet.uav[77] utilizationCountChargeState 52
scalar OsgEarthNet.uav[77] utilizationCountOverdrawnAfterMission 0
scalar OsgEarthNet.uav[77] utilizationCountIdleState 45
scalar OsgEarthNet.uav[77] utilizationFail 0
scalar OsgEarthNet.uav[77] simulationTime 259200
scalar OsgEarthNet.uav[78] utilizationSecMission 29154.771704719
scalar OsgEarthNet.uav[78] utilizationSecMaintenance 22203.42489855
scalar OsgEarthNet.uav[78] utilizationSecCharge 185812.17131607
scalar OsgEarthNet.uav[78] utilizationSecIdle 22029.631080665
scalar OsgEarthNet.uav[78] utilizationEnergyMission 134473.09999847
scalar OsgEarthNet.uav[78] utilizationEnergyMaintenance 102337.09869385
scalar OsgEarthNet.uav[78] utilizationEnergyCharge 235599.44970703
scalar OsgEarthNet.uav[78] utilizationEnergyOverdrawMission 0
scalar OsgEarthNet.uav[78] utilizationEnergyOverdrawMaintenance 0
scalar OsgEarthNet.uav[78] utilizationCountMissions 52
scalar OsgEarthNet.uav[78] utilizationCountManeuversMission 485
scalar OsgEarthNet.uav[78] utilizationCountManeuversMaintenance 104
scalar OsgEarthNet.uav[78] utilizationCountChargeState 52
scalar OsgEarthNet.uav[78] utilizationCountOverdrawnAfterMission 0
scalar OsgEarthNet.uav[78] utilizationCountIdleState 43
scalar OsgEarthNet.uav[78] utilizationFail 0
scalar OsgEarthNet.uav[78] simulationTime 259200
scalar OsgEarthNet.uav[79] utilizationSecMission 30125.204087082
scalar OsgEarthNet.uav[79] utilizationSecMaintenance 22226.420933739
scalar OsgEarthNet.uav[79] utilizationSecCharge 188697.81794197
scalar OsgEarthNet.uav[79] utilizationSecIdle 18150.556037205
scalar OsgEarthNet.uav[79] utilizationEnergyMission 139224.44174194
scalar OsgEarthNet.uav[79] utilizationEnergyMaintenance 102637.07310486
scalar OsgEarthNet.uav[79] utilizationEnergyCharge 240562.39550781
scalar OsgEarthNet.uav[79] utilizationEnergyOverdrawMission 0
scalar OsgEarthNet.uav[79] utilizationEnergyOverdrawMaintenance 0
scalar OsgEarthNet.uav[79] utilizationCountMissions 53
scalar OsgEarthNet.uav[79] utilizationCountManeuversMission 482
scalar OsgEarthNet.uav[79] utilizationCountManeuversMaintenance 106
scalar OsgEarthNet.uav[79] utilizationCountChargeState 53
scalar OsgEarthNet.uav[79] utilizationCountOverdrawnAfterMission 0
scalar OsgEarthNet.uav[79] utilizationCountIdleState 34
scalar OsgEarthNet.uav[79] utilizationFail 0
scalar OsgEarthNet.uav[79] simulationTime 259200
scalar OsgEarthNet.cs[0] usedPower 2119459.3560156
scalar OsgEarthNet.cs[0] chargedPower 2119459.3560156
scalar OsgEarthNet.cs[0] chargedMobileNodes 443
scalar OsgEarthNet.cs[0] reservations 474
scalar OsgEarthNet.cs[1] usedPower 3002888.2297253
scalar OsgEarthNet.cs[1] chargedPower 3002888.2297253
scalar OsgEarthNet.cs[1] chargedMobileNodes 613
scalar OsgEarthNet.cs[1] reservations 653
scalar OsgEarthNet.cs[2] usedPower 4866045.4156764
scalar OsgEarthNet.cs[2] chargedPower 4866045.4156764
scalar OsgEarthNet.cs[2] chargedMobileNodes 1007
scalar OsgEarthNet.cs[2] reservations 1078

