version 2
run Szenario_Hotel_Gabelbach-41-20180710-02:49:35-53552
attr configname Szenario_Hotel_Gabelbach
attr datetime 20180710-02:49:35
attr experiment Szenario_Hotel_Gabelbach
attr inifile omnetpp.ini
attr iterationvars "$numUAVs=40, $replM=0"
attr iterationvarsf numUAVs=40,replM=0-
attr measurement "$numUAVs=40, $replM=0"
attr network OsgEarthNet
attr processid 53552
attr repetition 9
attr replication #9
attr resultdir results
attr runnumber 41
attr seedset 41
itervar numUAVs 40
itervar replM 0
param *.osgEarthScene.scene "\"Szenario_Hotel_Gabelbach.earth\""
param *.playgroundLatitude 50.6830269
param *.playgroundLongitude 10.8538055
param *.playgroundWidth 3500m
param *.playgroundHeight 3500m
param *.numCSs 3
param *.cs[0].posX 3537m
param *.cs[0].posY 965m
param *.cs[0].posZ 538m
param *.cs[1].posX 312m
param *.cs[1].posY 1262m
param *.cs[1].posZ 539m
param *.cs[2].posX 2185m
param *.cs[2].posY 3026m
param *.cs[2].posZ 777m
param *.cs[3].posX 10m
param *.cs[3].posY 2200m
param *.cs[3].posZ 560m
param *.cs[4].posX 750m
param *.cs[4].posY 200m
param *.cs[4].posZ 540m
param *.cs[5].posX 2450m
param *.cs[5].posY 180m
param *.cs[5].posZ 524m
param *.cs[6].posX 3140m
param *.cs[6].posY 1790m
param *.cs[6].posZ 606m
param *.numUAVs 40
param *.uav[*].replacementMethod 0
param *.*.timeStep 10s
param *.uav[*].commandPreviewCommandCount 20
param *.missionControl.missionFiles "\"missions\\\\Szenario_WB_Hotel_Gabelbach_Mission_Hotel.waypoints,missions\\\\Szenario_WB_Hotel_Gabelbach_Mission_Kickelhahn.waypoints,missions\\\\Szenario_WB_Hotel_Gabelbach_Mission_Ilmenau_Sportplatz.waypoints,missions\\\\Szenario_WB_Hotel_Gabelbach_Mission_Manebach_Mitte.waypoints,missions\\\\Szenario_WB_Hotel_Gabelbach_Mission_Manebach_Sued.waypoints\""
param *.missionControl.missionFiles "\"missions\\\\Szenario_WB_Hotel_Gabelbach_Mission_Hotel.waypoints,missions\\\\Szenario_WB_Hotel_Gabelbach_Mission_Kickelhahn.waypoints,missions\\\\Szenario_WB_Hotel_Gabelbach_Mission_Ilmenau_Sportplatz.waypoints,missions\\\\Szenario_WB_Hotel_Gabelbach_Mission_Manebach_Mitte.waypoints,missions\\\\Szenario_WB_Hotel_Gabelbach_Mission_Manebach_Sued.waypoints,missions\\\\Szenario_WB_Hotel_Gabelbach_Hover_HoheSchlaufe.waypoints,missions\\\\Szenario_WB_Hotel_Gabelbach_Hover_Kickelhahn.waypoints,missions\\\\Szenario_WB_Hotel_Gabelbach_Hover_Gabelbachskopf.waypoints,missions\\\\Szenario_WB_Hotel_Gabelbach_Hover_Dachskopf.waypoints\""
param *.uav[0].startX 3537m
param *.uav[0].startY 965m
param *.uav[0].startZ 539m
param *.uav[1].startX 312m
param *.uav[1].startY 1262m
param *.uav[1].startZ 540m
param *.uav[2].startX 2185m
param *.uav[2].startY 3026m
param *.uav[2].startZ 778m
param *.uav[3].startX 3537m
param *.uav[3].startY 965m
param *.uav[3].startZ 539m
param *.uav[4].startX 312m
param *.uav[4].startY 1262m
param *.uav[4].startZ 540m
param *.uav[5].startX 2185m
param *.uav[5].startY 3026m
param *.uav[5].startZ 778m
param *.uav[6].startX 3537m
param *.uav[6].startY 965m
param *.uav[6].startZ 539m
param *.uav[7].startX 312m
param *.uav[7].startY 1262m
param *.uav[7].startZ 540m
param *.uav[8].startX 2185m
param *.uav[8].startY 3026m
param *.uav[8].startZ 778m
param *.uav[9].startX 3537m
param *.uav[9].startY 965m
param *.uav[9].startZ 539m
param *.uav[10].startX 3537m
param *.uav[10].startY 965m
param *.uav[10].startZ 539m
param *.uav[11].startX 312m
param *.uav[11].startY 1262m
param *.uav[11].startZ 540m
param *.uav[12].startX 2185m
param *.uav[12].startY 3026m
param *.uav[12].startZ 778m
param *.uav[13].startX 3537m
param *.uav[13].startY 965m
param *.uav[13].startZ 539m
param *.uav[14].startX 312m
param *.uav[14].startY 1262m
param *.uav[14].startZ 540m
param *.uav[15].startX 2185m
param *.uav[15].startY 3026m
param *.uav[15].startZ 778m
param *.uav[16].startX 3537m
param *.uav[16].startY 965m
param *.uav[16].startZ 539m
param *.uav[17].startX 312m
param *.uav[17].startY 1262m
param *.uav[17].startZ 540m
param *.uav[18].startX 2185m
param *.uav[18].startY 3026m
param *.uav[18].startZ 778m
param *.uav[19].startX 3537m
param *.uav[19].startY 965m
param *.uav[19].startZ 539m
param *.uav[20].startX 3537m
param *.uav[20].startY 965m
param *.uav[20].startZ 539m
param *.uav[21].startX 312m
param *.uav[21].startY 1262m
param *.uav[21].startZ 540m
param *.uav[22].startX 2185m
param *.uav[22].startY 3026m
param *.uav[22].startZ 778m
param *.uav[23].startX 3537m
param *.uav[23].startY 965m
param *.uav[23].startZ 539m
param *.uav[24].startX 312m
param *.uav[24].startY 1262m
param *.uav[24].startZ 540m
param *.uav[25].startX 2185m
param *.uav[25].startY 3026m
param *.uav[25].startZ 778m
param *.uav[26].startX 3537m
param *.uav[26].startY 965m
param *.uav[26].startZ 539m
param *.uav[27].startX 312m
param *.uav[27].startY 1262m
param *.uav[27].startZ 540m
param *.uav[28].startX 2185m
param *.uav[28].startY 3026m
param *.uav[28].startZ 778m
param *.uav[29].startX 3537m
param *.uav[29].startY 965m
param *.uav[29].startZ 539m
param *.uav[30].startX 3537m
param *.uav[30].startY 965m
param *.uav[30].startZ 539m
param *.uav[31].startX 312m
param *.uav[31].startY 1262m
param *.uav[31].startZ 540m
param *.uav[32].startX 2185m
param *.uav[32].startY 3026m
param *.uav[32].startZ 778m
param *.uav[33].startX 3537m
param *.uav[33].startY 965m
param *.uav[33].startZ 539m
param *.uav[34].startX 312m
param *.uav[34].startY 1262m
param *.uav[34].startZ 540m
param *.uav[35].startX 2185m
param *.uav[35].startY 3026m
param *.uav[35].startZ 778m
param *.uav[36].startX 3537m
param *.uav[36].startY 965m
param *.uav[36].startZ 539m
param *.uav[37].startX 312m
param *.uav[37].startY 1262m
param *.uav[37].startZ 540m
param *.uav[38].startX 2185m
param *.uav[38].startY 3026m
param *.uav[38].startZ 778m
param *.uav[39].startX 3537m
param *.uav[39].startY 965m
param *.uav[39].startZ 539m
param *.uav[40].startX 3537m
param *.uav[40].startY 965m
param *.uav[40].startZ 539m
param *.uav[41].startX 312m
param *.uav[41].startY 1262m
param *.uav[41].startZ 540m
param *.uav[42].startX 2185m
param *.uav[42].startY 3026m
param *.uav[42].startZ 778m
param *.uav[43].startX 3537m
param *.uav[43].startY 965m
param *.uav[43].startZ 539m
param *.uav[44].startX 312m
param *.uav[44].startY 1262m
param *.uav[44].startZ 540m
param *.uav[45].startX 2185m
param *.uav[45].startY 3026m
param *.uav[45].startZ 778m
param *.uav[46].startX 3537m
param *.uav[46].startY 965m
param *.uav[46].startZ 539m
param *.uav[47].startX 312m
param *.uav[47].startY 1262m
param *.uav[47].startZ 540m
param *.uav[48].startX 2185m
param *.uav[48].startY 3026m
param *.uav[48].startZ 778m
param *.uav[49].startX 3537m
param *.uav[49].startY 965m
param *.uav[49].startZ 539m
param *.uav[50].startX 3537m
param *.uav[50].startY 965m
param *.uav[50].startZ 539m
param *.uav[51].startX 312m
param *.uav[51].startY 1262m
param *.uav[51].startZ 540m
param *.uav[52].startX 2185m
param *.uav[52].startY 3026m
param *.uav[52].startZ 778m
param *.uav[53].startX 3537m
param *.uav[53].startY 965m
param *.uav[53].startZ 539m
param *.uav[54].startX 312m
param *.uav[54].startY 1262m
param *.uav[54].startZ 540m
param *.uav[55].startX 2185m
param *.uav[55].startY 3026m
param *.uav[55].startZ 778m
param *.uav[56].startX 3537m
param *.uav[56].startY 965m
param *.uav[56].startZ 539m
param *.uav[57].startX 312m
param *.uav[57].startY 1262m
param *.uav[57].startZ 540m
param *.uav[58].startX 2185m
param *.uav[58].startY 3026m
param *.uav[58].startZ 778m
param *.uav[59].startX 3537m
param *.uav[59].startY 965m
param *.uav[59].startZ 539m
param *.uav[60].startX 3537m
param *.uav[60].startY 965m
param *.uav[60].startZ 539m
param *.uav[61].startX 312m
param *.uav[61].startY 1262m
param *.uav[61].startZ 540m
param *.uav[62].startX 2185m
param *.uav[62].startY 3026m
param *.uav[62].startZ 778m
param *.uav[63].startX 3537m
param *.uav[63].startY 965m
param *.uav[63].startZ 539m
param *.uav[64].startX 312m
param *.uav[64].startY 1262m
param *.uav[64].startZ 540m
param *.uav[65].startX 2185m
param *.uav[65].startY 3026m
param *.uav[65].startZ 778m
param *.uav[66].startX 3537m
param *.uav[66].startY 965m
param *.uav[66].startZ 539m
param *.uav[67].startX 312m
param *.uav[67].startY 1262m
param *.uav[67].startZ 540m
param *.uav[68].startX 2185m
param *.uav[68].startY 3026m
param *.uav[68].startZ 778m
param *.uav[69].startX 3537m
param *.uav[69].startY 965m
param *.uav[69].startZ 539m
param *.uav[70].startX 3537m
param *.uav[70].startY 965m
param *.uav[70].startZ 539m
param *.uav[71].startX 312m
param *.uav[71].startY 1262m
param *.uav[71].startZ 540m
param *.uav[72].startX 2185m
param *.uav[72].startY 3026m
param *.uav[72].startZ 778m
param *.uav[73].startX 3537m
param *.uav[73].startY 965m
param *.uav[73].startZ 539m
param *.uav[74].startX 312m
param *.uav[74].startY 1262m
param *.uav[74].startZ 540m
param *.uav[75].startX 2185m
param *.uav[75].startY 3026m
param *.uav[75].startZ 778m
param *.uav[76].startX 3537m
param *.uav[76].startY 965m
param *.uav[76].startZ 539m
param *.uav[77].startX 312m
param *.uav[77].startY 1262m
param *.uav[77].startZ 540m
param *.uav[78].startX 2185m
param *.uav[78].startY 3026m
param *.uav[78].startZ 778m
param *.uav[79].startX 3537m
param *.uav[79].startY 965m
param *.uav[79].startZ 539m
param *.uav[80].startX 3537m
param *.uav[80].startY 965m
param *.uav[80].startZ 539m
param *.uav[81].startX 312m
param *.uav[81].startY 1262m
param *.uav[81].startZ 540m
param *.uav[82].startX 2185m
param *.uav[82].startY 3026m
param *.uav[82].startZ 778m
param *.uav[83].startX 3537m
param *.uav[83].startY 965m
param *.uav[83].startZ 539m
param *.uav[84].startX 312m
param *.uav[84].startY 1262m
param *.uav[84].startZ 540m
param *.uav[85].startX 2185m
param *.uav[85].startY 3026m
param *.uav[85].startZ 778m
param *.uav[86].startX 3537m
param *.uav[86].startY 965m
param *.uav[86].startZ 539m
param *.uav[87].startX 312m
param *.uav[87].startY 1262m
param *.uav[87].startZ 540m
param *.uav[88].startX 2185m
param *.uav[88].startY 3026m
param *.uav[88].startZ 778m
param *.uav[89].startX 3537m
param *.uav[89].startY 965m
param *.uav[89].startZ 539m
param *.uav[90].startX 3537m
param *.uav[90].startY 965m
param *.uav[90].startZ 539m
param *.uav[91].startX 312m
param *.uav[91].startY 1262m
param *.uav[91].startZ 540m
param *.uav[92].startX 2185m
param *.uav[92].startY 3026m
param *.uav[92].startZ 778m
param *.uav[93].startX 3537m
param *.uav[93].startY 965m
param *.uav[93].startZ 539m
param *.uav[94].startX 312m
param *.uav[94].startY 1262m
param *.uav[94].startZ 540m
param *.uav[95].startX 2185m
param *.uav[95].startY 3026m
param *.uav[95].startZ 778m
param *.uav[96].startX 3537m
param *.uav[96].startY 965m
param *.uav[96].startZ 539m
param *.uav[97].startX 312m
param *.uav[97].startY 1262m
param *.uav[97].startZ 540m
param *.uav[98].startX 2185m
param *.uav[98].startY 3026m
param *.uav[98].startZ 778m
param *.uav[99].startX 3537m
param *.uav[99].startY 965m
param *.uav[99].startZ 539m
param *.osgEarthScene.scene "\"boston.earth\""
param *.playgroundLatitude 42.3558
param *.playgroundLongitude -71.0677
param *.playgroundWidth 400m
param *.playgroundHeight 200m
param *.channelController.connectionColor "\"#0000FF40\""
param *.channelController.showConnections false
param *.uav[*].modelURL "\"quadrocopter.small.obj.15.scale.0,0,90.rot\""
param *.uav[*].labelColor "\"#FF7C00CC\""
param *.uav[*].label2Color "\"#FF7C00EE\""
param *.uav[*].batteryCapacity 5200mAh
param *.uav[*].batteryRemaining uav[index].batteryCapacity
param *.uav[*].predictionQuantile 0.95
param *.uav[*].replacementMethod 2
param *.uav[*].weightedSumWeight 0.5
param *.cs[*].modelURL "\"chargingstation_v1.osgt.2.scale.0,0,0.rot.0,0,-15e-1.trans\""
param *.cs[*].spotsWaiting 999
param *.cs[*].spotsCharging 999
param *.cs[*].chargeEffectivenessPercentage 100
param *.cs[*].nonLinearPhaseStartPercentage 85
param *.cs[*].chargeCurrent 6.0A
param *.cs[*].prioritizeFastCharge true
param *.missionControl.replacementSearchMethod 0
param *.*.timeStep 9s

scalar OsgEarthNet.uav[0] utilizationSecMission 32682.221878866
scalar OsgEarthNet.uav[0] utilizationSecMaintenance 22035.099212317
scalar OsgEarthNet.uav[0] utilizationSecCharge 193440.53809827
scalar OsgEarthNet.uav[0] utilizationSecIdle 11042.139810551
scalar OsgEarthNet.uav[0] utilizationEnergyMission 151914.51670074
scalar OsgEarthNet.uav[0] utilizationEnergyMaintenance 102776.25342941
scalar OsgEarthNet.uav[0] utilizationEnergyCharge 251484.78076172
scalar OsgEarthNet.uav[0] utilizationEnergyOverdrawMission 0
scalar OsgEarthNet.uav[0] utilizationEnergyOverdrawMaintenance 0
scalar OsgEarthNet.uav[0] utilizationCountMissions 56
scalar OsgEarthNet.uav[0] utilizationCountManeuversMission 531
scalar OsgEarthNet.uav[0] utilizationCountManeuversMaintenance 112
scalar OsgEarthNet.uav[0] utilizationCountChargeState 56
scalar OsgEarthNet.uav[0] utilizationCountOverdrawnAfterMission 0
scalar OsgEarthNet.uav[0] utilizationCountIdleState 30
scalar OsgEarthNet.uav[0] utilizationFail 0
scalar OsgEarthNet.uav[0] simulationTime 259200
scalar OsgEarthNet.uav[1] utilizationSecMission 30631.048714405
scalar OsgEarthNet.uav[1] utilizationSecMaintenance 24506.437294796
scalar OsgEarthNet.uav[1] utilizationSecCharge 194252.50505155
scalar OsgEarthNet.uav[1] utilizationSecIdle 9810.00793925
scalar OsgEarthNet.uav[1] utilizationEnergyMission 141122.19263458
scalar OsgEarthNet.uav[1] utilizationEnergyMaintenance 112722.9392662
scalar OsgEarthNet.uav[1] utilizationEnergyCharge 253767.84863281
scalar OsgEarthNet.uav[1] utilizationEnergyOverdrawMission 0
scalar OsgEarthNet.uav[1] utilizationEnergyOverdrawMaintenance 0
scalar OsgEarthNet.uav[1] utilizationCountMissions 56
scalar OsgEarthNet.uav[1] utilizationCountManeuversMission 510
scalar OsgEarthNet.uav[1] utilizationCountManeuversMaintenance 112
scalar OsgEarthNet.uav[1] utilizationCountChargeState 56
scalar OsgEarthNet.uav[1] utilizationCountOverdrawnAfterMission 0
scalar OsgEarthNet.uav[1] utilizationCountIdleState 23
scalar OsgEarthNet.uav[1] utilizationFail 0
scalar OsgEarthNet.uav[1] simulationTime 259200
scalar OsgEarthNet.uav[2] utilizationSecMission 32626.078062179
scalar OsgEarthNet.uav[2] utilizationSecMaintenance 23231.920937821
scalar OsgEarthNet.uav[2] utilizationSecCharge 195660
scalar OsgEarthNet.uav[2] utilizationSecIdle 7682
scalar OsgEarthNet.uav[2] utilizationEnergyMission 150728.92765201
scalar OsgEarthNet.uav[2] utilizationEnergyMaintenance 107059.44093323
scalar OsgEarthNet.uav[2] utilizationEnergyCharge 255597.68603516
scalar OsgEarthNet.uav[2] utilizationEnergyOverdrawMission 0
scalar OsgEarthNet.uav[2] utilizationEnergyOverdrawMaintenance 0
scalar OsgEarthNet.uav[2] utilizationCountMissions 56
scalar OsgEarthNet.uav[2] utilizationCountManeuversMission 538
scalar OsgEarthNet.uav[2] utilizationCountManeuversMaintenance 112
scalar OsgEarthNet.uav[2] utilizationCountChargeState 56
scalar OsgEarthNet.uav[2] utilizationCountOverdrawnAfterMission 0
scalar OsgEarthNet.uav[2] utilizationCountIdleState 29
scalar OsgEarthNet.uav[2] utilizationFail 0
scalar OsgEarthNet.uav[2] simulationTime 259200
scalar OsgEarthNet.uav[3] utilizationSecMission 33186.535134113
scalar OsgEarthNet.uav[3] utilizationSecMaintenance 22111.463865887
scalar OsgEarthNet.uav[3] utilizationSecCharge 196200
scalar OsgEarthNet.uav[3] utilizationSecIdle 7702
scalar OsgEarthNet.uav[3] utilizationEnergyMission 152505.07915497
scalar OsgEarthNet.uav[3] utilizationEnergyMaintenance 102336.73019918
scalar OsgEarthNet.uav[3] utilizationEnergyCharge 254427.80712891
scalar OsgEarthNet.uav[3] utilizationEnergyOverdrawMission 0
scalar OsgEarthNet.uav[3] utilizationEnergyOverdrawMaintenance 0
scalar OsgEarthNet.uav[3] utilizationCountMissions 56
scalar OsgEarthNet.uav[3] utilizationCountManeuversMission 540
scalar OsgEarthNet.uav[3] utilizationCountManeuversMaintenance 112
scalar OsgEarthNet.uav[3] utilizationCountChargeState 56
scalar OsgEarthNet.uav[3] utilizationCountOverdrawnAfterMission 0
scalar OsgEarthNet.uav[3] utilizationCountIdleState 33
scalar OsgEarthNet.uav[3] utilizationFail 0
scalar OsgEarthNet.uav[3] simulationTime 259200
scalar OsgEarthNet.uav[4] utilizationSecMission 30159.90111511
scalar OsgEarthNet.uav[4] utilizationSecMaintenance 24618.01066882
scalar OsgEarthNet.uav[4] utilizationSecCharge 191300
scalar OsgEarthNet.uav[4] utilizationSecIdle 13122.08721607
scalar OsgEarthNet.uav[4] utilizationEnergyMission 141473.32926559
scalar OsgEarthNet.uav[4] utilizationEnergyMaintenance 114700.85753146
scalar OsgEarthNet.uav[4] utilizationEnergyCharge 252234.39306641
scalar OsgEarthNet.uav[4] utilizationEnergyOverdrawMission 0
scalar OsgEarthNet.uav[4] utilizationEnergyOverdrawMaintenance 0
scalar OsgEarthNet.uav[4] utilizationCountMissions 56
scalar OsgEarthNet.uav[4] utilizationCountManeuversMission 497
scalar OsgEarthNet.uav[4] utilizationCountManeuversMaintenance 112
scalar OsgEarthNet.uav[4] utilizationCountChargeState 55
scalar OsgEarthNet.uav[4] utilizationCountOverdrawnAfterMission 0
scalar OsgEarthNet.uav[4] utilizationCountIdleState 26
scalar OsgEarthNet.uav[4] utilizationFail 0
scalar OsgEarthNet.uav[4] simulationTime 259200
scalar OsgEarthNet.uav[5] utilizationSecMission 31037.732542336
scalar OsgEarthNet.uav[5] utilizationSecMaintenance 25000.223560286
scalar OsgEarthNet.uav[5] utilizationSecCharge 195153.19473758
scalar OsgEarthNet.uav[5] utilizationSecIdle 8008.8481597938
scalar OsgEarthNet.uav[5] utilizationEnergyMission 143759.16322327
scalar OsgEarthNet.uav[5] utilizationEnergyMaintenance 114890.46067429
scalar OsgEarthNet.uav[5] utilizationEnergyCharge 257545.6472168
scalar OsgEarthNet.uav[5] utilizationEnergyOverdrawMission 0
scalar OsgEarthNet.uav[5] utilizationEnergyOverdrawMaintenance 0
scalar OsgEarthNet.uav[5] utilizationCountMissions 57
scalar OsgEarthNet.uav[5] utilizationCountManeuversMission 508
scalar OsgEarthNet.uav[5] utilizationCountManeuversMaintenance 114
scalar OsgEarthNet.uav[5] utilizationCountChargeState 57
scalar OsgEarthNet.uav[5] utilizationCountOverdrawnAfterMission 0
scalar OsgEarthNet.uav[5] utilizationCountIdleState 23
scalar OsgEarthNet.uav[5] utilizationFail 0
scalar OsgEarthNet.uav[5] simulationTime 259200
scalar OsgEarthNet.uav[6] utilizationSecMission 30643.618583337
scalar OsgEarthNet.uav[6] utilizationSecMaintenance 25601.256844358
scalar OsgEarthNet.uav[6] utilizationSecCharge 193310.9597994
scalar OsgEarthNet.uav[6] utilizationSecIdle 9644.1637729077
scalar OsgEarthNet.uav[6] utilizationEnergyMission 140770.68284607
scalar OsgEarthNet.uav[6] utilizationEnergyMaintenance 117871.13486481
scalar OsgEarthNet.uav[6] utilizationEnergyCharge 254869.97998047
scalar OsgEarthNet.uav[6] utilizationEnergyOverdrawMission 0
scalar OsgEarthNet.uav[6] utilizationEnergyOverdrawMaintenance 0
scalar OsgEarthNet.uav[6] utilizationCountMissions 57
scalar OsgEarthNet.uav[6] utilizationCountManeuversMission 495
scalar OsgEarthNet.uav[6] utilizationCountManeuversMaintenance 114
scalar OsgEarthNet.uav[6] utilizationCountChargeState 57
scalar OsgEarthNet.uav[6] utilizationCountOverdrawnAfterMission 0
scalar OsgEarthNet.uav[6] utilizationCountIdleState 26
scalar OsgEarthNet.uav[6] utilizationFail 0
scalar OsgEarthNet.uav[6] simulationTime 259200
scalar OsgEarthNet.uav[7] utilizationSecMission 32213.402780049
scalar OsgEarthNet.uav[7] utilizationSecMaintenance 23243.090839305
scalar OsgEarthNet.uav[7] utilizationSecCharge 196496.19027965
scalar OsgEarthNet.uav[7] utilizationSecIdle 7247.3151010005
scalar OsgEarthNet.uav[7] utilizationEnergyMission 148872.51598358
scalar OsgEarthNet.uav[7] utilizationEnergyMaintenance 108255.03621674
scalar OsgEarthNet.uav[7] utilizationEnergyCharge 256429.36303711
scalar OsgEarthNet.uav[7] utilizationEnergyOverdrawMission 0
scalar OsgEarthNet.uav[7] utilizationEnergyOverdrawMaintenance 0
scalar OsgEarthNet.uav[7] utilizationCountMissions 57
scalar OsgEarthNet.uav[7] utilizationCountManeuversMission 515
scalar OsgEarthNet.uav[7] utilizationCountManeuversMaintenance 114
scalar OsgEarthNet.uav[7] utilizationCountChargeState 57
scalar OsgEarthNet.uav[7] utilizationCountOverdrawnAfterMission 0
scalar OsgEarthNet.uav[7] utilizationCountIdleState 25
scalar OsgEarthNet.uav[7] utilizationFail 0
scalar OsgEarthNet.uav[7] simulationTime 259200
scalar OsgEarthNet.uav[8] utilizationSecMission 30362.954928624
scalar OsgEarthNet.uav[8] utilizationSecMaintenance 25901.906711632
scalar OsgEarthNet.uav[8] utilizationSecCharge 197106.2409846
scalar OsgEarthNet.uav[8] utilizationSecIdle 5828.8963751435
scalar OsgEarthNet.uav[8] utilizationEnergyMission 141123.85906982
scalar OsgEarthNet.uav[8] utilizationEnergyMaintenance 120274.76240921
scalar OsgEarthNet.uav[8] utilizationEnergyCharge 257275.80847168
scalar OsgEarthNet.uav[8] utilizationEnergyOverdrawMission 0
scalar OsgEarthNet.uav[8] utilizationEnergyOverdrawMaintenance 0
scalar OsgEarthNet.uav[8] utilizationCountMissions 58
scalar OsgEarthNet.uav[8] utilizationCountManeuversMission 489
scalar OsgEarthNet.uav[8] utilizationCountManeuversMaintenance 116
scalar OsgEarthNet.uav[8] utilizationCountChargeState 58
scalar OsgEarthNet.uav[8] utilizationCountOverdrawnAfterMission 0
scalar OsgEarthNet.uav[8] utilizationCountIdleState 22
scalar OsgEarthNet.uav[8] utilizationFail 0
scalar OsgEarthNet.uav[8] simulationTime 259200
scalar OsgEarthNet.uav[9] utilizationSecMission 31000.813797002
scalar OsgEarthNet.uav[9] utilizationSecMaintenance 25088.904547414
scalar OsgEarthNet.uav[9] utilizationSecCharge 193535.96425517
scalar OsgEarthNet.uav[9] utilizationSecIdle 9574.3164004148
scalar OsgEarthNet.uav[9] utilizationEnergyMission 142094.05305862
scalar OsgEarthNet.uav[9] utilizationEnergyMaintenance 115368.14165497
scalar OsgEarthNet.uav[9] utilizationEnergyCharge 256620.94189453
scalar OsgEarthNet.uav[9] utilizationEnergyOverdrawMission 0
scalar OsgEarthNet.uav[9] utilizationEnergyOverdrawMaintenance 0
scalar OsgEarthNet.uav[9] utilizationCountMissions 57
scalar OsgEarthNet.uav[9] utilizationCountManeuversMission 510
scalar OsgEarthNet.uav[9] utilizationCountManeuversMaintenance 114
scalar OsgEarthNet.uav[9] utilizationCountChargeState 57
scalar OsgEarthNet.uav[9] utilizationCountOverdrawnAfterMission 0
scalar OsgEarthNet.uav[9] utilizationCountIdleState 23
scalar OsgEarthNet.uav[9] utilizationFail 0
scalar OsgEarthNet.uav[9] simulationTime 259200
scalar OsgEarthNet.uav[10] utilizationSecMission 31216.769894625
scalar OsgEarthNet.uav[10] utilizationSecMaintenance 24573.779921013
scalar OsgEarthNet.uav[10] utilizationSecCharge 194504.80476503
scalar OsgEarthNet.uav[10] utilizationSecIdle 8904.64441933
scalar OsgEarthNet.uav[10] utilizationEnergyMission 143600.53997803
scalar OsgEarthNet.uav[10] utilizationEnergyMaintenance 114086.36380005
scalar OsgEarthNet.uav[10] utilizationEnergyCharge 256830.25634766
scalar OsgEarthNet.uav[10] utilizationEnergyOverdrawMission 0
scalar OsgEarthNet.uav[10] utilizationEnergyOverdrawMaintenance 0
scalar OsgEarthNet.uav[10] utilizationCountMissions 57
scalar OsgEarthNet.uav[10] utilizationCountManeuversMission 515
scalar OsgEarthNet.uav[10] utilizationCountManeuversMaintenance 114
scalar OsgEarthNet.uav[10] utilizationCountChargeState 57
scalar OsgEarthNet.uav[10] utilizationCountOverdrawnAfterMission 0
scalar OsgEarthNet.uav[10] utilizationCountIdleState 19
scalar OsgEarthNet.uav[10] utilizationFail 0
scalar OsgEarthNet.uav[10] simulationTime 259200
scalar OsgEarthNet.uav[11] utilizationSecMission 32843.500471644
scalar OsgEarthNet.uav[11] utilizationSecMaintenance 23050.368940208
scalar OsgEarthNet.uav[11] utilizationSecCharge 196192.92568039
scalar OsgEarthNet.uav[11] utilizationSecIdle 7113.20390776
scalar OsgEarthNet.uav[11] utilizationEnergyMission 151518.20915222
scalar OsgEarthNet.uav[11] utilizationEnergyMaintenance 107120.09352112
scalar OsgEarthNet.uav[11] utilizationEnergyCharge 256059.86218262
scalar OsgEarthNet.uav[11] utilizationEnergyOverdrawMission 0
scalar OsgEarthNet.uav[11] utilizationEnergyOverdrawMaintenance 0
scalar OsgEarthNet.uav[11] utilizationCountMissions 57
scalar OsgEarthNet.uav[11] utilizationCountManeuversMission 534
scalar OsgEarthNet.uav[11] utilizationCountManeuversMaintenance 114
scalar OsgEarthNet.uav[11] utilizationCountChargeState 57
scalar OsgEarthNet.uav[11] utilizationCountOverdrawnAfterMission 0
scalar OsgEarthNet.uav[11] utilizationCountIdleState 31
scalar OsgEarthNet.uav[11] utilizationFail 0
scalar OsgEarthNet.uav[11] simulationTime 259200
scalar OsgEarthNet.uav[12] utilizationSecMission 32396.959404767
scalar OsgEarthNet.uav[12] utilizationSecMaintenance 23465.252028765
scalar OsgEarthNet.uav[12] utilizationSecCharge 197588.61245606
scalar OsgEarthNet.uav[12] utilizationSecIdle 5749.1751104107
scalar OsgEarthNet.uav[12] utilizationEnergyMission 150079.45711517
scalar OsgEarthNet.uav[12] utilizationEnergyMaintenance 109042.12031555
scalar OsgEarthNet.uav[12] utilizationEnergyCharge 259165.60180664
scalar OsgEarthNet.uav[12] utilizationEnergyOverdrawMission 0
scalar OsgEarthNet.uav[12] utilizationEnergyOverdrawMaintenance 0
scalar OsgEarthNet.uav[12] utilizationCountMissions 57
scalar OsgEarthNet.uav[12] utilizationCountManeuversMission 528
scalar OsgEarthNet.uav[12] utilizationCountManeuversMaintenance 114
scalar OsgEarthNet.uav[12] utilizationCountChargeState 57
scalar OsgEarthNet.uav[12] utilizationCountOverdrawnAfterMission 0
scalar OsgEarthNet.uav[12] utilizationCountIdleState 26
scalar OsgEarthNet.uav[12] utilizationFail 0
scalar OsgEarthNet.uav[12] simulationTime 259200
scalar OsgEarthNet.uav[13] utilizationSecMission 32820.363917956
scalar OsgEarthNet.uav[13] utilizationSecMaintenance 22856.778850588
scalar OsgEarthNet.uav[13] utilizationSecCharge 195188.29466397
scalar OsgEarthNet.uav[13] utilizationSecIdle 8334.561567481
scalar OsgEarthNet.uav[13] utilizationEnergyMission 151063.96006012
scalar OsgEarthNet.uav[13] utilizationEnergyMaintenance 104998.62852097
scalar OsgEarthNet.uav[13] utilizationEnergyCharge 256224.75097656
scalar OsgEarthNet.uav[13] utilizationEnergyOverdrawMission 0
scalar OsgEarthNet.uav[13] utilizationEnergyOverdrawMaintenance 0
scalar OsgEarthNet.uav[13] utilizationCountMissions 57
scalar OsgEarthNet.uav[13] utilizationCountManeuversMission 531
scalar OsgEarthNet.uav[13] utilizationCountManeuversMaintenance 114
scalar OsgEarthNet.uav[13] utilizationCountChargeState 57
scalar OsgEarthNet.uav[13] utilizationCountOverdrawnAfterMission 0
scalar OsgEarthNet.uav[13] utilizationCountIdleState 23
scalar OsgEarthNet.uav[13] utilizationFail 0
scalar OsgEarthNet.uav[13] simulationTime 259200
scalar OsgEarthNet.uav[14] utilizationSecMission 31104.139640102
scalar OsgEarthNet.uav[14] utilizationSecMaintenance 25406.239433921
scalar OsgEarthNet.uav[14] utilizationSecCharge 194939.60162828
scalar OsgEarthNet.uav[14] utilizationSecIdle 7750.0182976986
scalar OsgEarthNet.uav[14] utilizationEnergyMission 143205.07244873
scalar OsgEarthNet.uav[14] utilizationEnergyMaintenance 118202.43736649
scalar OsgEarthNet.uav[14] utilizationEnergyCharge 257515.0246582
scalar OsgEarthNet.uav[14] utilizationEnergyOverdrawMission 0
scalar OsgEarthNet.uav[14] utilizationEnergyOverdrawMaintenance 0
scalar OsgEarthNet.uav[14] utilizationCountMissions 58
scalar OsgEarthNet.uav[14] utilizationCountManeuversMission 503
scalar OsgEarthNet.uav[14] utilizationCountManeuversMaintenance 116
scalar OsgEarthNet.uav[14] utilizationCountChargeState 58
scalar OsgEarthNet.uav[14] utilizationCountOverdrawnAfterMission 0
scalar OsgEarthNet.uav[14] utilizationCountIdleState 19
scalar OsgEarthNet.uav[14] utilizationFail 0
scalar OsgEarthNet.uav[14] simulationTime 259200
scalar OsgEarthNet.uav[15] utilizationSecMission 31945.441411706
scalar OsgEarthNet.uav[15] utilizationSecMaintenance 25082.557588294
scalar OsgEarthNet.uav[15] utilizationSecCharge 198230
scalar OsgEarthNet.uav[15] utilizationSecIdle 3942
scalar OsgEarthNet.uav[15] utilizationEnergyMission 147695.90428293
scalar OsgEarthNet.uav[15] utilizationEnergyMaintenance 118222.39300919
scalar OsgEarthNet.uav[15] utilizationEnergyCharge 264268.18066406
scalar OsgEarthNet.uav[15] utilizationEnergyOverdrawMission 0
scalar OsgEarthNet.uav[15] utilizationEnergyOverdrawMaintenance 0
scalar OsgEarthNet.uav[15] utilizationCountMissions 58
scalar OsgEarthNet.uav[15] utilizationCountManeuversMission 526
scalar OsgEarthNet.uav[15] utilizationCountManeuversMaintenance 116
scalar OsgEarthNet.uav[15] utilizationCountChargeState 58
scalar OsgEarthNet.uav[15] utilizationCountOverdrawnAfterMission 0
scalar OsgEarthNet.uav[15] utilizationCountIdleState 17
scalar OsgEarthNet.uav[15] utilizationFail 0
scalar OsgEarthNet.uav[15] simulationTime 259200
scalar OsgEarthNet.uav[16] utilizationSecMission 31911.101672607
scalar OsgEarthNet.uav[16] utilizationSecMaintenance 25477.844275122
scalar OsgEarthNet.uav[16] utilizationSecCharge 196315.10380924
scalar OsgEarthNet.uav[16] utilizationSecIdle 5495.94924303
scalar OsgEarthNet.uav[16] utilizationEnergyMission 148488.55981445
scalar OsgEarthNet.uav[16] utilizationEnergyMaintenance 116873.84638977
scalar OsgEarthNet.uav[16] utilizationEnergyCharge 261124.23425293
scalar OsgEarthNet.uav[16] utilizationEnergyOverdrawMission 0
scalar OsgEarthNet.uav[16] utilizationEnergyOverdrawMaintenance 0
scalar OsgEarthNet.uav[16] utilizationCountMissions 59
scalar OsgEarthNet.uav[16] utilizationCountManeuversMission 521
scalar OsgEarthNet.uav[16] utilizationCountManeuversMaintenance 118
scalar OsgEarthNet.uav[16] utilizationCountChargeState 59
scalar OsgEarthNet.uav[16] utilizationCountOverdrawnAfterMission 0
scalar OsgEarthNet.uav[16] utilizationCountIdleState 23
scalar OsgEarthNet.uav[16] utilizationFail 0
scalar OsgEarthNet.uav[16] simulationTime 259200
scalar OsgEarthNet.uav[17] utilizationSecMission 33720.452336435
scalar OsgEarthNet.uav[17] utilizationSecMaintenance 23162.31335422
scalar OsgEarthNet.uav[17] utilizationSecCharge 195737.04248251
scalar OsgEarthNet.uav[17] utilizationSecIdle 6580.1908268337
scalar OsgEarthNet.uav[17] utilizationEnergyMission 155422.06306458
scalar OsgEarthNet.uav[17] utilizationEnergyMaintenance 107566.62174225
scalar OsgEarthNet.uav[17] utilizationEnergyCharge 261419.44091797
scalar OsgEarthNet.uav[17] utilizationEnergyOverdrawMission 0
scalar OsgEarthNet.uav[17] utilizationEnergyOverdrawMaintenance 0
scalar OsgEarthNet.uav[17] utilizationCountMissions 58
scalar OsgEarthNet.uav[17] utilizationCountManeuversMission 558
scalar OsgEarthNet.uav[17] utilizationCountManeuversMaintenance 116
scalar OsgEarthNet.uav[17] utilizationCountChargeState 58
scalar OsgEarthNet.uav[17] utilizationCountOverdrawnAfterMission 0
scalar OsgEarthNet.uav[17] utilizationCountIdleState 16
scalar OsgEarthNet.uav[17] utilizationFail 0
scalar OsgEarthNet.uav[17] simulationTime 259200
scalar OsgEarthNet.uav[18] utilizationSecMission 30938.931989152
scalar OsgEarthNet.uav[18] utilizationSecMaintenance 26364.686668181
scalar OsgEarthNet.uav[18] utilizationSecCharge 197456.95499538
scalar OsgEarthNet.uav[18] utilizationSecIdle 4439.4253472904
scalar OsgEarthNet.uav[18] utilizationEnergyMission 143207.34291077
scalar OsgEarthNet.uav[18] utilizationEnergyMaintenance 122348.65742111
scalar OsgEarthNet.uav[18] utilizationEnergyCharge 263355.47949219
scalar OsgEarthNet.uav[18] utilizationEnergyOverdrawMission 0
scalar OsgEarthNet.uav[18] utilizationEnergyOverdrawMaintenance 0
scalar OsgEarthNet.uav[18] utilizationCountMissions 59
scalar OsgEarthNet.uav[18] utilizationCountManeuversMission 513
scalar OsgEarthNet.uav[18] utilizationCountManeuversMaintenance 118
scalar OsgEarthNet.uav[18] utilizationCountChargeState 59
scalar OsgEarthNet.uav[18] utilizationCountOverdrawnAfterMission 0
scalar OsgEarthNet.uav[18] utilizationCountIdleState 17
scalar OsgEarthNet.uav[18] utilizationFail 0
scalar OsgEarthNet.uav[18] simulationTime 259200
scalar OsgEarthNet.uav[19] utilizationSecMission 31998.587945796
scalar OsgEarthNet.uav[19] utilizationSecMaintenance 24152.816499532
scalar OsgEarthNet.uav[19] utilizationSecCharge 194440
scalar OsgEarthNet.uav[19] utilizationSecIdle 8608.5945546727
scalar OsgEarthNet.uav[19] utilizationEnergyMission 147683.4602575
scalar OsgEarthNet.uav[19] utilizationEnergyMaintenance 112366.97595215
scalar OsgEarthNet.uav[19] utilizationEnergyCharge 258098.05859375
scalar OsgEarthNet.uav[19] utilizationEnergyOverdrawMission 0
scalar OsgEarthNet.uav[19] utilizationEnergyOverdrawMaintenance 0
scalar OsgEarthNet.uav[19] utilizationCountMissions 57
scalar OsgEarthNet.uav[19] utilizationCountManeuversMission 517
scalar OsgEarthNet.uav[19] utilizationCountManeuversMaintenance 115
scalar OsgEarthNet.uav[19] utilizationCountChargeState 57
scalar OsgEarthNet.uav[19] utilizationCountOverdrawnAfterMission 0
scalar OsgEarthNet.uav[19] utilizationCountIdleState 19
scalar OsgEarthNet.uav[19] utilizationFail 0
scalar OsgEarthNet.uav[19] simulationTime 259200
scalar OsgEarthNet.uav[20] utilizationSecMission 32579.308246945
scalar OsgEarthNet.uav[20] utilizationSecMaintenance 24698.690753055
scalar OsgEarthNet.uav[20] utilizationSecCharge 197600
scalar OsgEarthNet.uav[20] utilizationSecIdle 4322
scalar OsgEarthNet.uav[20] utilizationEnergyMission 151943.34853363
scalar OsgEarthNet.uav[20] utilizationEnergyMaintenance 113878.88490269
scalar OsgEarthNet.uav[20] utilizationEnergyCharge 261629.47924805
scalar OsgEarthNet.uav[20] utilizationEnergyOverdrawMission 0
scalar OsgEarthNet.uav[20] utilizationEnergyOverdrawMaintenance 0
scalar OsgEarthNet.uav[20] utilizationCountMissions 59
scalar OsgEarthNet.uav[20] utilizationCountManeuversMission 543
scalar OsgEarthNet.uav[20] utilizationCountManeuversMaintenance 117
scalar OsgEarthNet.uav[20] utilizationCountChargeState 58
scalar OsgEarthNet.uav[20] utilizationCountOverdrawnAfterMission 0
scalar OsgEarthNet.uav[20] utilizationCountIdleState 19
scalar OsgEarthNet.uav[20] utilizationFail 0
scalar OsgEarthNet.uav[20] simulationTime 259200
scalar OsgEarthNet.uav[21] utilizationSecMission 33973.347691581
scalar OsgEarthNet.uav[21] utilizationSecMaintenance 23175.401453988
scalar OsgEarthNet.uav[21] utilizationSecCharge 197949.24985443
scalar OsgEarthNet.uav[21] utilizationSecIdle 4102
scalar OsgEarthNet.uav[21] utilizationEnergyMission 156545.84764862
scalar OsgEarthNet.uav[21] utilizationEnergyMaintenance 107099.41228485
scalar OsgEarthNet.uav[21] utilizationEnergyCharge 262237.26953125
scalar OsgEarthNet.uav[21] utilizationEnergyOverdrawMission 0
scalar OsgEarthNet.uav[21] utilizationEnergyOverdrawMaintenance 0
scalar OsgEarthNet.uav[21] utilizationCountMissions 58
scalar OsgEarthNet.uav[21] utilizationCountManeuversMission 545
scalar OsgEarthNet.uav[21] utilizationCountManeuversMaintenance 115
scalar OsgEarthNet.uav[21] utilizationCountChargeState 58
scalar OsgEarthNet.uav[21] utilizationCountOverdrawnAfterMission 0
scalar OsgEarthNet.uav[21] utilizationCountIdleState 23
scalar OsgEarthNet.uav[21] utilizationFail 0
scalar OsgEarthNet.uav[21] simulationTime 259200
scalar OsgEarthNet.uav[22] utilizationSecMission 32518.268011817
scalar OsgEarthNet.uav[22] utilizationSecMaintenance 24449.909320462
scalar OsgEarthNet.uav[22] utilizationSecCharge 196100.14861613
scalar OsgEarthNet.uav[22] utilizationSecIdle 6131.6730515863
scalar OsgEarthNet.uav[22] utilizationEnergyMission 151809.87625122
scalar OsgEarthNet.uav[22] utilizationEnergyMaintenance 113850.86643982
scalar OsgEarthNet.uav[22] utilizationEnergyCharge 262713.42016602
scalar OsgEarthNet.uav[22] utilizationEnergyOverdrawMission 0
scalar OsgEarthNet.uav[22] utilizationEnergyOverdrawMaintenance 0
scalar OsgEarthNet.uav[22] utilizationCountMissions 58
scalar OsgEarthNet.uav[22] utilizationCountManeuversMission 538
scalar OsgEarthNet.uav[22] utilizationCountManeuversMaintenance 116
scalar OsgEarthNet.uav[22] utilizationCountChargeState 58
scalar OsgEarthNet.uav[22] utilizationCountOverdrawnAfterMission 0
scalar OsgEarthNet.uav[22] utilizationCountIdleState 15
scalar OsgEarthNet.uav[22] utilizationFail 0
scalar OsgEarthNet.uav[22] simulationTime 259200
scalar OsgEarthNet.uav[23] utilizationSecMission 30597.599781375
scalar OsgEarthNet.uav[23] utilizationSecMaintenance 26104.145199619
scalar OsgEarthNet.uav[23] utilizationSecCharge 194996.26228291
scalar OsgEarthNet.uav[23] utilizationSecIdle 7501.9917360921
scalar OsgEarthNet.uav[23] utilizationEnergyMission 142651.85662079
scalar OsgEarthNet.uav[23] utilizationEnergyMaintenance 119217.70848083
scalar OsgEarthNet.uav[23] utilizationEnergyCharge 258681.90966797
scalar OsgEarthNet.uav[23] utilizationEnergyOverdrawMission 0
scalar OsgEarthNet.uav[23] utilizationEnergyOverdrawMaintenance 0
scalar OsgEarthNet.uav[23] utilizationCountMissions 58
scalar OsgEarthNet.uav[23] utilizationCountManeuversMission 502
scalar OsgEarthNet.uav[23] utilizationCountManeuversMaintenance 116
scalar OsgEarthNet.uav[23] utilizationCountChargeState 58
scalar OsgEarthNet.uav[23] utilizationCountOverdrawnAfterMission 0
scalar OsgEarthNet.uav[23] utilizationCountIdleState 20
scalar OsgEarthNet.uav[23] utilizationFail 0
scalar OsgEarthNet.uav[23] simulationTime 259200
scalar OsgEarthNet.uav[24] utilizationSecMission 31505.541840707
scalar OsgEarthNet.uav[24] utilizationSecMaintenance 24915.023071834
scalar OsgEarthNet.uav[24] utilizationSecCharge 195310.05006809
scalar OsgEarthNet.uav[24] utilizationSecIdle 7469.384019372
scalar OsgEarthNet.uav[24] utilizationEnergyMission 147023.83518982
scalar OsgEarthNet.uav[24] utilizationEnergyMaintenance 115467.24627686
scalar OsgEarthNet.uav[24] utilizationEnergyCharge 261159.09692383
scalar OsgEarthNet.uav[24] utilizationEnergyOverdrawMission 0
scalar OsgEarthNet.uav[24] utilizationEnergyOverdrawMaintenance 0
scalar OsgEarthNet.uav[24] utilizationCountMissions 58
scalar OsgEarthNet.uav[24] utilizationCountManeuversMission 507
scalar OsgEarthNet.uav[24] utilizationCountManeuversMaintenance 116
scalar OsgEarthNet.uav[24] utilizationCountChargeState 58
scalar OsgEarthNet.uav[24] utilizationCountOverdrawnAfterMission 0
scalar OsgEarthNet.uav[24] utilizationCountIdleState 17
scalar OsgEarthNet.uav[24] utilizationFail 0
scalar OsgEarthNet.uav[24] simulationTime 259200
scalar OsgEarthNet.uav[25] utilizationSecMission 32105.177882984
scalar OsgEarthNet.uav[25] utilizationSecMaintenance 24834.074652096
scalar OsgEarthNet.uav[25] utilizationSecCharge 196649.29350299
scalar OsgEarthNet.uav[25] utilizationSecIdle 5611.4529619338
scalar OsgEarthNet.uav[25] utilizationEnergyMission 148217.08511353
scalar OsgEarthNet.uav[25] utilizationEnergyMaintenance 114417.5958519
scalar OsgEarthNet.uav[25] utilizationEnergyCharge 262595.4753418
scalar OsgEarthNet.uav[25] utilizationEnergyOverdrawMission 0
scalar OsgEarthNet.uav[25] utilizationEnergyOverdrawMaintenance 0
scalar OsgEarthNet.uav[25] utilizationCountMissions 58
scalar OsgEarthNet.uav[25] utilizationCountManeuversMission 525
scalar OsgEarthNet.uav[25] utilizationCountManeuversMaintenance 116
scalar OsgEarthNet.uav[25] utilizationCountChargeState 58
scalar OsgEarthNet.uav[25] utilizationCountOverdrawnAfterMission 0
scalar OsgEarthNet.uav[25] utilizationCountIdleState 19
scalar OsgEarthNet.uav[25] utilizationFail 0
scalar OsgEarthNet.uav[25] simulationTime 259200
scalar OsgEarthNet.uav[26] utilizationSecMission 31676.563723697
scalar OsgEarthNet.uav[26] utilizationSecMaintenance 25349.172495556
scalar OsgEarthNet.uav[26] utilizationSecCharge 195110.87066581
scalar OsgEarthNet.uav[26] utilizationSecIdle 7063.3921149407
scalar OsgEarthNet.uav[26] utilizationEnergyMission 146844.37127686
scalar OsgEarthNet.uav[26] utilizationEnergyMaintenance 116521.44968796
scalar OsgEarthNet.uav[26] utilizationEnergyCharge 263147.65722656
scalar OsgEarthNet.uav[26] utilizationEnergyOverdrawMission 0
scalar OsgEarthNet.uav[26] utilizationEnergyOverdrawMaintenance 0
scalar OsgEarthNet.uav[26] utilizationCountMissions 58
scalar OsgEarthNet.uav[26] utilizationCountManeuversMission 525
scalar OsgEarthNet.uav[26] utilizationCountManeuversMaintenance 116
scalar OsgEarthNet.uav[26] utilizationCountChargeState 58
scalar OsgEarthNet.uav[26] utilizationCountOverdrawnAfterMission 0
scalar OsgEarthNet.uav[26] utilizationCountIdleState 17
scalar OsgEarthNet.uav[26] utilizationFail 0
scalar OsgEarthNet.uav[26] simulationTime 259200
scalar OsgEarthNet.uav[27] utilizationSecMission 31948.145904695
scalar OsgEarthNet.uav[27] utilizationSecMaintenance 25281.86495659
scalar OsgEarthNet.uav[27] utilizationSecCharge 197791.53186828
scalar OsgEarthNet.uav[27] utilizationSecIdle 4178.456270436
scalar OsgEarthNet.uav[27] utilizationEnergyMission 147966.6656723
scalar OsgEarthNet.uav[27] utilizationEnergyMaintenance 117147.80414581
scalar OsgEarthNet.uav[27] utilizationEnergyCharge 265310.61181641
scalar OsgEarthNet.uav[27] utilizationEnergyOverdrawMission 0
scalar OsgEarthNet.uav[27] utilizationEnergyOverdrawMaintenance 0
scalar OsgEarthNet.uav[27] utilizationCountMissions 58
scalar OsgEarthNet.uav[27] utilizationCountManeuversMission 513
scalar OsgEarthNet.uav[27] utilizationCountManeuversMaintenance 116
scalar OsgEarthNet.uav[27] utilizationCountChargeState 58
scalar OsgEarthNet.uav[27] utilizationCountOverdrawnAfterMission 0
scalar OsgEarthNet.uav[27] utilizationCountIdleState 16
scalar OsgEarthNet.uav[27] utilizationFail 0
scalar OsgEarthNet.uav[27] simulationTime 259200
scalar OsgEarthNet.uav[28] utilizationSecMission 32782.243622279
scalar OsgEarthNet.uav[28] utilizationSecMaintenance 25170.143827844
scalar OsgEarthNet.uav[28] utilizationSecCharge 198238.39193596
scalar OsgEarthNet.uav[28] utilizationSecIdle 3009.2196139157
scalar OsgEarthNet.uav[28] utilizationEnergyMission 151036.17483521
scalar OsgEarthNet.uav[28] utilizationEnergyMaintenance 116847.85788345
scalar OsgEarthNet.uav[28] utilizationEnergyCharge 266076.3605957
scalar OsgEarthNet.uav[28] utilizationEnergyOverdrawMission 0
scalar OsgEarthNet.uav[28] utilizationEnergyOverdrawMaintenance 0
scalar OsgEarthNet.uav[28] utilizationCountMissions 59
scalar OsgEarthNet.uav[28] utilizationCountManeuversMission 536
scalar OsgEarthNet.uav[28] utilizationCountManeuversMaintenance 118
scalar OsgEarthNet.uav[28] utilizationCountChargeState 59
scalar OsgEarthNet.uav[28] utilizationCountOverdrawnAfterMission 0
scalar OsgEarthNet.uav[28] utilizationCountIdleState 14
scalar OsgEarthNet.uav[28] utilizationFail 0
scalar OsgEarthNet.uav[28] simulationTime 259200
scalar OsgEarthNet.uav[29] utilizationSecMission 32735.040277872
scalar OsgEarthNet.uav[29] utilizationSecMaintenance 24002.401543042
scalar OsgEarthNet.uav[29] utilizationSecCharge 194070
scalar OsgEarthNet.uav[29] utilizationSecIdle 8392.5571790865
scalar OsgEarthNet.uav[29] utilizationEnergyMission 150149.29042053
scalar OsgEarthNet.uav[29] utilizationEnergyMaintenance 112351.66756515
scalar OsgEarthNet.uav[29] utilizationEnergyCharge 257983.7253418
scalar OsgEarthNet.uav[29] utilizationEnergyOverdrawMission 0
scalar OsgEarthNet.uav[29] utilizationEnergyOverdrawMaintenance 0
scalar OsgEarthNet.uav[29] utilizationCountMissions 58
scalar OsgEarthNet.uav[29] utilizationCountManeuversMission 537
scalar OsgEarthNet.uav[29] utilizationCountManeuversMaintenance 116
scalar OsgEarthNet.uav[29] utilizationCountChargeState 57
scalar OsgEarthNet.uav[29] utilizationCountOverdrawnAfterMission 0
scalar OsgEarthNet.uav[29] utilizationCountIdleState 18
scalar OsgEarthNet.uav[29] utilizationFail 0
scalar OsgEarthNet.uav[29] simulationTime 259200
scalar OsgEarthNet.uav[30] utilizationSecMission 32796.899750158
scalar OsgEarthNet.uav[30] utilizationSecMaintenance 24765.836447547
scalar OsgEarthNet.uav[30] utilizationSecCharge 197224.49683955
scalar OsgEarthNet.uav[30] utilizationSecIdle 4412.765962746
scalar OsgEarthNet.uav[30] utilizationEnergyMission 151615.69322205
scalar OsgEarthNet.uav[30] utilizationEnergyMaintenance 114168.71453857
scalar OsgEarthNet.uav[30] utilizationEnergyCharge 264111.28833008
scalar OsgEarthNet.uav[30] utilizationEnergyOverdrawMission 0
scalar OsgEarthNet.uav[30] utilizationEnergyOverdrawMaintenance 0
scalar OsgEarthNet.uav[30] utilizationCountMissions 59
scalar OsgEarthNet.uav[30] utilizationCountManeuversMission 533
scalar OsgEarthNet.uav[30] utilizationCountManeuversMaintenance 118
scalar OsgEarthNet.uav[30] utilizationCountChargeState 59
scalar OsgEarthNet.uav[30] utilizationCountOverdrawnAfterMission 0
scalar OsgEarthNet.uav[30] utilizationCountIdleState 15
scalar OsgEarthNet.uav[30] utilizationFail 0
scalar OsgEarthNet.uav[30] simulationTime 259200
scalar OsgEarthNet.uav[31] utilizationSecMission 34587.676223589
scalar OsgEarthNet.uav[31] utilizationSecMaintenance 21376.438037969
scalar OsgEarthNet.uav[31] utilizationSecCharge 194902.94198438
scalar OsgEarthNet.uav[31] utilizationSecIdle 8332.9427540571
scalar OsgEarthNet.uav[31] utilizationEnergyMission 160682.07453537
scalar OsgEarthNet.uav[31] utilizationEnergyMaintenance 98621.269454956
scalar OsgEarthNet.uav[31] utilizationEnergyCharge 258917.71533203
scalar OsgEarthNet.uav[31] utilizationEnergyOverdrawMission 0
scalar OsgEarthNet.uav[31] utilizationEnergyOverdrawMaintenance 0
scalar OsgEarthNet.uav[31] utilizationCountMissions 56
scalar OsgEarthNet.uav[31] utilizationCountManeuversMission 559
scalar OsgEarthNet.uav[31] utilizationCountManeuversMaintenance 112
scalar OsgEarthNet.uav[31] utilizationCountChargeState 56
scalar OsgEarthNet.uav[31] utilizationCountOverdrawnAfterMission 0
scalar OsgEarthNet.uav[31] utilizationCountIdleState 19
scalar OsgEarthNet.uav[31] utilizationFail 0
scalar OsgEarthNet.uav[31] simulationTime 259200
scalar OsgEarthNet.uav[32] utilizationSecMission 31503.160363804
scalar OsgEarthNet.uav[32] utilizationSecMaintenance 25922.642667864
scalar OsgEarthNet.uav[32] utilizationSecCharge 197488.74031171
scalar OsgEarthNet.uav[32] utilizationSecIdle 4285.4556566199
scalar OsgEarthNet.uav[32] utilizationEnergyMission 146530.62838364
scalar OsgEarthNet.uav[32] utilizationEnergyMaintenance 121471.46217346
scalar OsgEarthNet.uav[32] utilizationEnergyCharge 267029.01953125
scalar OsgEarthNet.uav[32] utilizationEnergyOverdrawMission 0
scalar OsgEarthNet.uav[32] utilizationEnergyOverdrawMaintenance 0
scalar OsgEarthNet.uav[32] utilizationCountMissions 59
scalar OsgEarthNet.uav[32] utilizationCountManeuversMission 528
scalar OsgEarthNet.uav[32] utilizationCountManeuversMaintenance 118
scalar OsgEarthNet.uav[32] utilizationCountChargeState 59
scalar OsgEarthNet.uav[32] utilizationCountOverdrawnAfterMission 0
scalar OsgEarthNet.uav[32] utilizationCountIdleState 11
scalar OsgEarthNet.uav[32] utilizationFail 0
scalar OsgEarthNet.uav[32] simulationTime 259200
scalar OsgEarthNet.uav[33] utilizationSecMission 32418.519127329
scalar OsgEarthNet.uav[33] utilizationSecMaintenance 24696.319672038
scalar OsgEarthNet.uav[33] utilizationSecCharge 194841.1419335
scalar OsgEarthNet.uav[33] utilizationSecIdle 7244.0182671353
scalar OsgEarthNet.uav[33] utilizationEnergyMission 148934.84441376
scalar OsgEarthNet.uav[33] utilizationEnergyMaintenance 113694.29073715
scalar OsgEarthNet.uav[33] utilizationEnergyCharge 262792.95678711
scalar OsgEarthNet.uav[33] utilizationEnergyOverdrawMission 0
scalar OsgEarthNet.uav[33] utilizationEnergyOverdrawMaintenance 0
scalar OsgEarthNet.uav[33] utilizationCountMissions 58
scalar OsgEarthNet.uav[33] utilizationCountManeuversMission 532
scalar OsgEarthNet.uav[33] utilizationCountManeuversMaintenance 116
scalar OsgEarthNet.uav[33] utilizationCountChargeState 58
scalar OsgEarthNet.uav[33] utilizationCountOverdrawnAfterMission 0
scalar OsgEarthNet.uav[33] utilizationCountIdleState 15
scalar OsgEarthNet.uav[33] utilizationFail 0
scalar OsgEarthNet.uav[33] simulationTime 259200
scalar OsgEarthNet.uav[34] utilizationSecMission 31633.904244865
scalar OsgEarthNet.uav[34] utilizationSecMaintenance 25668.357578848
scalar OsgEarthNet.uav[34] utilizationSecCharge 197589.38455424
scalar OsgEarthNet.uav[34] utilizationSecIdle 4308.3526220491
scalar OsgEarthNet.uav[34] utilizationEnergyMission 147250.65682983
scalar OsgEarthNet.uav[34] utilizationEnergyMaintenance 119693.3172226
scalar OsgEarthNet.uav[34] utilizationEnergyCharge 264273.57788086
scalar OsgEarthNet.uav[34] utilizationEnergyOverdrawMission 0
scalar OsgEarthNet.uav[34] utilizationEnergyOverdrawMaintenance 0
scalar OsgEarthNet.uav[34] utilizationCountMissions 58
scalar OsgEarthNet.uav[34] utilizationCountManeuversMission 511
scalar OsgEarthNet.uav[34] utilizationCountManeuversMaintenance 116
scalar OsgEarthNet.uav[34] utilizationCountChargeState 58
scalar OsgEarthNet.uav[34] utilizationCountOverdrawnAfterMission 0
scalar OsgEarthNet.uav[34] utilizationCountIdleState 17
scalar OsgEarthNet.uav[34] utilizationFail 0
scalar OsgEarthNet.uav[34] simulationTime 259200
scalar OsgEarthNet.uav[35] utilizationSecMission 32155.733394724
scalar OsgEarthNet.uav[35] utilizationSecMaintenance 25243.55754497
scalar OsgEarthNet.uav[35] utilizationSecCharge 195900
scalar OsgEarthNet.uav[35] utilizationSecIdle 5900.7080603066
scalar OsgEarthNet.uav[35] utilizationEnergyMission 148292.68319648
scalar OsgEarthNet.uav[35] utilizationEnergyMaintenance 116167.49165344
scalar OsgEarthNet.uav[35] utilizationEnergyCharge 262001.07446289
scalar OsgEarthNet.uav[35] utilizationEnergyOverdrawMission 0
scalar OsgEarthNet.uav[35] utilizationEnergyOverdrawMaintenance 0
scalar OsgEarthNet.uav[35] utilizationCountMissions 58
scalar OsgEarthNet.uav[35] utilizationCountManeuversMission 524
scalar OsgEarthNet.uav[35] utilizationCountManeuversMaintenance 117
scalar OsgEarthNet.uav[35] utilizationCountChargeState 58
scalar OsgEarthNet.uav[35] utilizationCountOverdrawnAfterMission 0
scalar OsgEarthNet.uav[35] utilizationCountIdleState 15
scalar OsgEarthNet.uav[35] utilizationFail 0
scalar OsgEarthNet.uav[35] simulationTime 259200
scalar OsgEarthNet.uav[36] utilizationSecMission 30937.584068689
scalar OsgEarthNet.uav[36] utilizationSecMaintenance 26341.649163598
scalar OsgEarthNet.uav[36] utilizationSecCharge 196580
scalar OsgEarthNet.uav[36] utilizationSecIdle 5340.7657677125
scalar OsgEarthNet.uav[36] utilizationEnergyMission 142503.02286944
scalar OsgEarthNet.uav[36] utilizationEnergyMaintenance 122680.57004166
scalar OsgEarthNet.uav[36] utilizationEnergyCharge 264595.74169922
scalar OsgEarthNet.uav[36] utilizationEnergyOverdrawMission 0
scalar OsgEarthNet.uav[36] utilizationEnergyOverdrawMaintenance 0
scalar OsgEarthNet.uav[36] utilizationCountMissions 59
scalar OsgEarthNet.uav[36] utilizationCountManeuversMission 499
scalar OsgEarthNet.uav[36] utilizationCountManeuversMaintenance 119
scalar OsgEarthNet.uav[36] utilizationCountChargeState 59
scalar OsgEarthNet.uav[36] utilizationCountOverdrawnAfterMission 0
scalar OsgEarthNet.uav[36] utilizationCountIdleState 15
scalar OsgEarthNet.uav[36] utilizationFail 0
scalar OsgEarthNet.uav[36] simulationTime 259200
scalar OsgEarthNet.uav[37] utilizationSecMission 30982.365618105
scalar OsgEarthNet.uav[37] utilizationSecMaintenance 26717.869888965
scalar OsgEarthNet.uav[37] utilizationSecCharge 196438.70767418
scalar OsgEarthNet.uav[37] utilizationSecIdle 5061.0558187472
scalar OsgEarthNet.uav[37] utilizationEnergyMission 142684.11936188
scalar OsgEarthNet.uav[37] utilizationEnergyMaintenance 124408.81378937
scalar OsgEarthNet.uav[37] utilizationEnergyCharge 262748.26757812
scalar OsgEarthNet.uav[37] utilizationEnergyOverdrawMission 0
scalar OsgEarthNet.uav[37] utilizationEnergyOverdrawMaintenance 0
scalar OsgEarthNet.uav[37] utilizationCountMissions 59
scalar OsgEarthNet.uav[37] utilizationCountManeuversMission 512
scalar OsgEarthNet.uav[37] utilizationCountManeuversMaintenance 118
scalar OsgEarthNet.uav[37] utilizationCountChargeState 59
scalar OsgEarthNet.uav[37] utilizationCountOverdrawnAfterMission 0
scalar OsgEarthNet.uav[37] utilizationCountIdleState 15
scalar OsgEarthNet.uav[37] utilizationFail 0
scalar OsgEarthNet.uav[37] simulationTime 259200
scalar OsgEarthNet.uav[38] utilizationSecMission 32778.394425262
scalar OsgEarthNet.uav[38] utilizationSecMaintenance 25183.741319775
scalar OsgEarthNet.uav[38] utilizationSecCharge 196488.2321743
scalar OsgEarthNet.uav[38] utilizationSecIdle 4749.6310806652
scalar OsgEarthNet.uav[38] utilizationEnergyMission 150689.73265457
scalar OsgEarthNet.uav[38] utilizationEnergyMaintenance 114988.78900528
scalar OsgEarthNet.uav[38] utilizationEnergyCharge 261309.60748291
scalar OsgEarthNet.uav[38] utilizationEnergyOverdrawMission 0
scalar OsgEarthNet.uav[38] utilizationEnergyOverdrawMaintenance 0
scalar OsgEarthNet.uav[38] utilizationCountMissions 59
scalar OsgEarthNet.uav[38] utilizationCountManeuversMission 543
scalar OsgEarthNet.uav[38] utilizationCountManeuversMaintenance 118
scalar OsgEarthNet.uav[38] utilizationCountChargeState 59
scalar OsgEarthNet.uav[38] utilizationCountOverdrawnAfterMission 0
scalar OsgEarthNet.uav[38] utilizationCountIdleState 14
scalar OsgEarthNet.uav[38] utilizationFail 0
scalar OsgEarthNet.uav[38] simulationTime 259200
scalar OsgEarthNet.uav[39] utilizationSecMission 33342.337207211
scalar OsgEarthNet.uav[39] utilizationSecMaintenance 23786.9455427
scalar OsgEarthNet.uav[39] utilizationSecCharge 196448.57151014
scalar OsgEarthNet.uav[39] utilizationSecIdle 5622.1447399488
scalar OsgEarthNet.uav[39] utilizationEnergyMission 153376.77849579
scalar OsgEarthNet.uav[39] utilizationEnergyMaintenance 111509.34722519
scalar OsgEarthNet.uav[39] utilizationEnergyCharge 264190.27539062
scalar OsgEarthNet.uav[39] utilizationEnergyOverdrawMission 0
scalar OsgEarthNet.uav[39] utilizationEnergyOverdrawMaintenance 0
scalar OsgEarthNet.uav[39] utilizationCountMissions 59
scalar OsgEarthNet.uav[39] utilizationCountManeuversMission 537
scalar OsgEarthNet.uav[39] utilizationCountManeuversMaintenance 118
scalar OsgEarthNet.uav[39] utilizationCountChargeState 59
scalar OsgEarthNet.uav[39] utilizationCountOverdrawnAfterMission 0
scalar OsgEarthNet.uav[39] utilizationCountIdleState 20
scalar OsgEarthNet.uav[39] utilizationFail 0
scalar OsgEarthNet.uav[39] simulationTime 259200
scalar OsgEarthNet.cs[0] usedPower 2373896.3529751
scalar OsgEarthNet.cs[0] chargedPower 2373896.3529751
scalar OsgEarthNet.cs[0] chargedMobileNodes 158
scalar OsgEarthNet.cs[0] reservations 531
scalar OsgEarthNet.cs[1] usedPower 3020393.0864725
scalar OsgEarthNet.cs[1] chargedPower 3020393.0864725
scalar OsgEarthNet.cs[1] chargedMobileNodes 177
scalar OsgEarthNet.cs[1] reservations 662
scalar OsgEarthNet.cs[2] usedPower 5003803.9573349
scalar OsgEarthNet.cs[2] chargedPower 5003803.9573349
scalar OsgEarthNet.cs[2] chargedMobileNodes 445
scalar OsgEarthNet.cs[2] reservations 1116

