version 2
run Szenario_Hotel_Gabelbach-133-20180710-05:47:51-25620
attr configname Szenario_Hotel_Gabelbach
attr datetime 20180710-05:47:51
attr experiment Szenario_Hotel_Gabelbach
attr inifile omnetpp.ini
attr iterationvars "$numUAVs=100, $replM=0"
attr iterationvarsf numUAVs=100,replM=0-
attr measurement "$numUAVs=100, $replM=0"
attr network OsgEarthNet
attr processid 25620
attr repetition 5
attr replication #5
attr resultdir results
attr runnumber 133
attr seedset 133
itervar numUAVs 100
itervar replM 0
param *.osgEarthScene.scene "\"Szenario_Hotel_Gabelbach.earth\""
param *.playgroundLatitude 50.6830269
param *.playgroundLongitude 10.8538055
param *.playgroundWidth 3500m
param *.playgroundHeight 3500m
param *.numCSs 3
param *.cs[0].posX 3537m
param *.cs[0].posY 965m
param *.cs[0].posZ 538m
param *.cs[1].posX 312m
param *.cs[1].posY 1262m
param *.cs[1].posZ 539m
param *.cs[2].posX 2185m
param *.cs[2].posY 3026m
param *.cs[2].posZ 777m
param *.cs[3].posX 10m
param *.cs[3].posY 2200m
param *.cs[3].posZ 560m
param *.cs[4].posX 750m
param *.cs[4].posY 200m
param *.cs[4].posZ 540m
param *.cs[5].posX 2450m
param *.cs[5].posY 180m
param *.cs[5].posZ 524m
param *.cs[6].posX 3140m
param *.cs[6].posY 1790m
param *.cs[6].posZ 606m
param *.numUAVs 100
param *.uav[*].replacementMethod 0
param *.*.timeStep 10s
param *.uav[*].commandPreviewCommandCount 20
param *.missionControl.missionFiles "\"missions\\\\Szenario_WB_Hotel_Gabelbach_Mission_Hotel.waypoints,missions\\\\Szenario_WB_Hotel_Gabelbach_Mission_Kickelhahn.waypoints,missions\\\\Szenario_WB_Hotel_Gabelbach_Mission_Ilmenau_Sportplatz.waypoints,missions\\\\Szenario_WB_Hotel_Gabelbach_Mission_Manebach_Mitte.waypoints,missions\\\\Szenario_WB_Hotel_Gabelbach_Mission_Manebach_Sued.waypoints\""
param *.missionControl.missionFiles "\"missions\\\\Szenario_WB_Hotel_Gabelbach_Mission_Hotel.waypoints,missions\\\\Szenario_WB_Hotel_Gabelbach_Mission_Kickelhahn.waypoints,missions\\\\Szenario_WB_Hotel_Gabelbach_Mission_Ilmenau_Sportplatz.waypoints,missions\\\\Szenario_WB_Hotel_Gabelbach_Mission_Manebach_Mitte.waypoints,missions\\\\Szenario_WB_Hotel_Gabelbach_Mission_Manebach_Sued.waypoints,missions\\\\Szenario_WB_Hotel_Gabelbach_Hover_HoheSchlaufe.waypoints,missions\\\\Szenario_WB_Hotel_Gabelbach_Hover_Kickelhahn.waypoints,missions\\\\Szenario_WB_Hotel_Gabelbach_Hover_Gabelbachskopf.waypoints,missions\\\\Szenario_WB_Hotel_Gabelbach_Hover_Dachskopf.waypoints\""
param *.uav[0].startX 3537m
param *.uav[0].startY 965m
param *.uav[0].startZ 539m
param *.uav[1].startX 312m
param *.uav[1].startY 1262m
param *.uav[1].startZ 540m
param *.uav[2].startX 2185m
param *.uav[2].startY 3026m
param *.uav[2].startZ 778m
param *.uav[3].startX 3537m
param *.uav[3].startY 965m
param *.uav[3].startZ 539m
param *.uav[4].startX 312m
param *.uav[4].startY 1262m
param *.uav[4].startZ 540m
param *.uav[5].startX 2185m
param *.uav[5].startY 3026m
param *.uav[5].startZ 778m
param *.uav[6].startX 3537m
param *.uav[6].startY 965m
param *.uav[6].startZ 539m
param *.uav[7].startX 312m
param *.uav[7].startY 1262m
param *.uav[7].startZ 540m
param *.uav[8].startX 2185m
param *.uav[8].startY 3026m
param *.uav[8].startZ 778m
param *.uav[9].startX 3537m
param *.uav[9].startY 965m
param *.uav[9].startZ 539m
param *.uav[10].startX 3537m
param *.uav[10].startY 965m
param *.uav[10].startZ 539m
param *.uav[11].startX 312m
param *.uav[11].startY 1262m
param *.uav[11].startZ 540m
param *.uav[12].startX 2185m
param *.uav[12].startY 3026m
param *.uav[12].startZ 778m
param *.uav[13].startX 3537m
param *.uav[13].startY 965m
param *.uav[13].startZ 539m
param *.uav[14].startX 312m
param *.uav[14].startY 1262m
param *.uav[14].startZ 540m
param *.uav[15].startX 2185m
param *.uav[15].startY 3026m
param *.uav[15].startZ 778m
param *.uav[16].startX 3537m
param *.uav[16].startY 965m
param *.uav[16].startZ 539m
param *.uav[17].startX 312m
param *.uav[17].startY 1262m
param *.uav[17].startZ 540m
param *.uav[18].startX 2185m
param *.uav[18].startY 3026m
param *.uav[18].startZ 778m
param *.uav[19].startX 3537m
param *.uav[19].startY 965m
param *.uav[19].startZ 539m
param *.uav[20].startX 3537m
param *.uav[20].startY 965m
param *.uav[20].startZ 539m
param *.uav[21].startX 312m
param *.uav[21].startY 1262m
param *.uav[21].startZ 540m
param *.uav[22].startX 2185m
param *.uav[22].startY 3026m
param *.uav[22].startZ 778m
param *.uav[23].startX 3537m
param *.uav[23].startY 965m
param *.uav[23].startZ 539m
param *.uav[24].startX 312m
param *.uav[24].startY 1262m
param *.uav[24].startZ 540m
param *.uav[25].startX 2185m
param *.uav[25].startY 3026m
param *.uav[25].startZ 778m
param *.uav[26].startX 3537m
param *.uav[26].startY 965m
param *.uav[26].startZ 539m
param *.uav[27].startX 312m
param *.uav[27].startY 1262m
param *.uav[27].startZ 540m
param *.uav[28].startX 2185m
param *.uav[28].startY 3026m
param *.uav[28].startZ 778m
param *.uav[29].startX 3537m
param *.uav[29].startY 965m
param *.uav[29].startZ 539m
param *.uav[30].startX 3537m
param *.uav[30].startY 965m
param *.uav[30].startZ 539m
param *.uav[31].startX 312m
param *.uav[31].startY 1262m
param *.uav[31].startZ 540m
param *.uav[32].startX 2185m
param *.uav[32].startY 3026m
param *.uav[32].startZ 778m
param *.uav[33].startX 3537m
param *.uav[33].startY 965m
param *.uav[33].startZ 539m
param *.uav[34].startX 312m
param *.uav[34].startY 1262m
param *.uav[34].startZ 540m
param *.uav[35].startX 2185m
param *.uav[35].startY 3026m
param *.uav[35].startZ 778m
param *.uav[36].startX 3537m
param *.uav[36].startY 965m
param *.uav[36].startZ 539m
param *.uav[37].startX 312m
param *.uav[37].startY 1262m
param *.uav[37].startZ 540m
param *.uav[38].startX 2185m
param *.uav[38].startY 3026m
param *.uav[38].startZ 778m
param *.uav[39].startX 3537m
param *.uav[39].startY 965m
param *.uav[39].startZ 539m
param *.uav[40].startX 3537m
param *.uav[40].startY 965m
param *.uav[40].startZ 539m
param *.uav[41].startX 312m
param *.uav[41].startY 1262m
param *.uav[41].startZ 540m
param *.uav[42].startX 2185m
param *.uav[42].startY 3026m
param *.uav[42].startZ 778m
param *.uav[43].startX 3537m
param *.uav[43].startY 965m
param *.uav[43].startZ 539m
param *.uav[44].startX 312m
param *.uav[44].startY 1262m
param *.uav[44].startZ 540m
param *.uav[45].startX 2185m
param *.uav[45].startY 3026m
param *.uav[45].startZ 778m
param *.uav[46].startX 3537m
param *.uav[46].startY 965m
param *.uav[46].startZ 539m
param *.uav[47].startX 312m
param *.uav[47].startY 1262m
param *.uav[47].startZ 540m
param *.uav[48].startX 2185m
param *.uav[48].startY 3026m
param *.uav[48].startZ 778m
param *.uav[49].startX 3537m
param *.uav[49].startY 965m
param *.uav[49].startZ 539m
param *.uav[50].startX 3537m
param *.uav[50].startY 965m
param *.uav[50].startZ 539m
param *.uav[51].startX 312m
param *.uav[51].startY 1262m
param *.uav[51].startZ 540m
param *.uav[52].startX 2185m
param *.uav[52].startY 3026m
param *.uav[52].startZ 778m
param *.uav[53].startX 3537m
param *.uav[53].startY 965m
param *.uav[53].startZ 539m
param *.uav[54].startX 312m
param *.uav[54].startY 1262m
param *.uav[54].startZ 540m
param *.uav[55].startX 2185m
param *.uav[55].startY 3026m
param *.uav[55].startZ 778m
param *.uav[56].startX 3537m
param *.uav[56].startY 965m
param *.uav[56].startZ 539m
param *.uav[57].startX 312m
param *.uav[57].startY 1262m
param *.uav[57].startZ 540m
param *.uav[58].startX 2185m
param *.uav[58].startY 3026m
param *.uav[58].startZ 778m
param *.uav[59].startX 3537m
param *.uav[59].startY 965m
param *.uav[59].startZ 539m
param *.uav[60].startX 3537m
param *.uav[60].startY 965m
param *.uav[60].startZ 539m
param *.uav[61].startX 312m
param *.uav[61].startY 1262m
param *.uav[61].startZ 540m
param *.uav[62].startX 2185m
param *.uav[62].startY 3026m
param *.uav[62].startZ 778m
param *.uav[63].startX 3537m
param *.uav[63].startY 965m
param *.uav[63].startZ 539m
param *.uav[64].startX 312m
param *.uav[64].startY 1262m
param *.uav[64].startZ 540m
param *.uav[65].startX 2185m
param *.uav[65].startY 3026m
param *.uav[65].startZ 778m
param *.uav[66].startX 3537m
param *.uav[66].startY 965m
param *.uav[66].startZ 539m
param *.uav[67].startX 312m
param *.uav[67].startY 1262m
param *.uav[67].startZ 540m
param *.uav[68].startX 2185m
param *.uav[68].startY 3026m
param *.uav[68].startZ 778m
param *.uav[69].startX 3537m
param *.uav[69].startY 965m
param *.uav[69].startZ 539m
param *.uav[70].startX 3537m
param *.uav[70].startY 965m
param *.uav[70].startZ 539m
param *.uav[71].startX 312m
param *.uav[71].startY 1262m
param *.uav[71].startZ 540m
param *.uav[72].startX 2185m
param *.uav[72].startY 3026m
param *.uav[72].startZ 778m
param *.uav[73].startX 3537m
param *.uav[73].startY 965m
param *.uav[73].startZ 539m
param *.uav[74].startX 312m
param *.uav[74].startY 1262m
param *.uav[74].startZ 540m
param *.uav[75].startX 2185m
param *.uav[75].startY 3026m
param *.uav[75].startZ 778m
param *.uav[76].startX 3537m
param *.uav[76].startY 965m
param *.uav[76].startZ 539m
param *.uav[77].startX 312m
param *.uav[77].startY 1262m
param *.uav[77].startZ 540m
param *.uav[78].startX 2185m
param *.uav[78].startY 3026m
param *.uav[78].startZ 778m
param *.uav[79].startX 3537m
param *.uav[79].startY 965m
param *.uav[79].startZ 539m
param *.uav[80].startX 3537m
param *.uav[80].startY 965m
param *.uav[80].startZ 539m
param *.uav[81].startX 312m
param *.uav[81].startY 1262m
param *.uav[81].startZ 540m
param *.uav[82].startX 2185m
param *.uav[82].startY 3026m
param *.uav[82].startZ 778m
param *.uav[83].startX 3537m
param *.uav[83].startY 965m
param *.uav[83].startZ 539m
param *.uav[84].startX 312m
param *.uav[84].startY 1262m
param *.uav[84].startZ 540m
param *.uav[85].startX 2185m
param *.uav[85].startY 3026m
param *.uav[85].startZ 778m
param *.uav[86].startX 3537m
param *.uav[86].startY 965m
param *.uav[86].startZ 539m
param *.uav[87].startX 312m
param *.uav[87].startY 1262m
param *.uav[87].startZ 540m
param *.uav[88].startX 2185m
param *.uav[88].startY 3026m
param *.uav[88].startZ 778m
param *.uav[89].startX 3537m
param *.uav[89].startY 965m
param *.uav[89].startZ 539m
param *.uav[90].startX 3537m
param *.uav[90].startY 965m
param *.uav[90].startZ 539m
param *.uav[91].startX 312m
param *.uav[91].startY 1262m
param *.uav[91].startZ 540m
param *.uav[92].startX 2185m
param *.uav[92].startY 3026m
param *.uav[92].startZ 778m
param *.uav[93].startX 3537m
param *.uav[93].startY 965m
param *.uav[93].startZ 539m
param *.uav[94].startX 312m
param *.uav[94].startY 1262m
param *.uav[94].startZ 540m
param *.uav[95].startX 2185m
param *.uav[95].startY 3026m
param *.uav[95].startZ 778m
param *.uav[96].startX 3537m
param *.uav[96].startY 965m
param *.uav[96].startZ 539m
param *.uav[97].startX 312m
param *.uav[97].startY 1262m
param *.uav[97].startZ 540m
param *.uav[98].startX 2185m
param *.uav[98].startY 3026m
param *.uav[98].startZ 778m
param *.uav[99].startX 3537m
param *.uav[99].startY 965m
param *.uav[99].startZ 539m
param *.osgEarthScene.scene "\"boston.earth\""
param *.playgroundLatitude 42.3558
param *.playgroundLongitude -71.0677
param *.playgroundWidth 400m
param *.playgroundHeight 200m
param *.channelController.connectionColor "\"#0000FF40\""
param *.channelController.showConnections false
param *.uav[*].modelURL "\"quadrocopter.small.obj.15.scale.0,0,90.rot\""
param *.uav[*].labelColor "\"#FF7C00CC\""
param *.uav[*].label2Color "\"#FF7C00EE\""
param *.uav[*].batteryCapacity 5200mAh
param *.uav[*].batteryRemaining uav[index].batteryCapacity
param *.uav[*].predictionQuantile 0.95
param *.uav[*].replacementMethod 2
param *.uav[*].weightedSumWeight 0.5
param *.cs[*].modelURL "\"chargingstation_v1.osgt.2.scale.0,0,0.rot.0,0,-15e-1.trans\""
param *.cs[*].spotsWaiting 999
param *.cs[*].spotsCharging 999
param *.cs[*].chargeEffectivenessPercentage 100
param *.cs[*].nonLinearPhaseStartPercentage 85
param *.cs[*].chargeCurrent 6.0A
param *.cs[*].prioritizeFastCharge true
param *.missionControl.replacementSearchMethod 0
param *.*.timeStep 9s

scalar OsgEarthNet.uav[0] utilizationSecMission 23150.715906071
scalar OsgEarthNet.uav[0] utilizationSecMaintenance 17373.890898623
scalar OsgEarthNet.uav[0] utilizationSecCharge 149022.31716465
scalar OsgEarthNet.uav[0] utilizationSecIdle 69653.075030653
scalar OsgEarthNet.uav[0] utilizationEnergyMission 107806.81088257
scalar OsgEarthNet.uav[0] utilizationEnergyMaintenance 79758.892745972
scalar OsgEarthNet.uav[0] utilizationEnergyCharge 187665.17114258
scalar OsgEarthNet.uav[0] utilizationEnergyOverdrawMission 0
scalar OsgEarthNet.uav[0] utilizationEnergyOverdrawMaintenance 0
scalar OsgEarthNet.uav[0] utilizationCountMissions 41
scalar OsgEarthNet.uav[0] utilizationCountManeuversMission 369
scalar OsgEarthNet.uav[0] utilizationCountManeuversMaintenance 82
scalar OsgEarthNet.uav[0] utilizationCountChargeState 41
scalar OsgEarthNet.uav[0] utilizationCountOverdrawnAfterMission 0
scalar OsgEarthNet.uav[0] utilizationCountIdleState 41
scalar OsgEarthNet.uav[0] utilizationFail 0
scalar OsgEarthNet.uav[0] simulationTime 259200
scalar OsgEarthNet.uav[1] utilizationSecMission 27685.199244889
scalar OsgEarthNet.uav[1] utilizationSecMaintenance 19475.429754006
scalar OsgEarthNet.uav[1] utilizationSecCharge 170984.75811159
scalar OsgEarthNet.uav[1] utilizationSecIdle 41054.611889516
scalar OsgEarthNet.uav[1] utilizationEnergyMission 127535.63637543
scalar OsgEarthNet.uav[1] utilizationEnergyMaintenance 90744.036003113
scalar OsgEarthNet.uav[1] utilizationEnergyCharge 214337.35748291
scalar OsgEarthNet.uav[1] utilizationEnergyOverdrawMission 0
scalar OsgEarthNet.uav[1] utilizationEnergyOverdrawMaintenance 0
scalar OsgEarthNet.uav[1] utilizationCountMissions 48
scalar OsgEarthNet.uav[1] utilizationCountManeuversMission 458
scalar OsgEarthNet.uav[1] utilizationCountManeuversMaintenance 96
scalar OsgEarthNet.uav[1] utilizationCountChargeState 48
scalar OsgEarthNet.uav[1] utilizationCountOverdrawnAfterMission 0
scalar OsgEarthNet.uav[1] utilizationCountIdleState 48
scalar OsgEarthNet.uav[1] utilizationFail 0
scalar OsgEarthNet.uav[1] simulationTime 259200
scalar OsgEarthNet.uav[2] utilizationSecMission 750.20472747826
scalar OsgEarthNet.uav[2] utilizationSecMaintenance 255.5651663541
scalar OsgEarthNet.uav[2] utilizationSecCharge 3720
scalar OsgEarthNet.uav[2] utilizationSecIdle 254474.22910617
scalar OsgEarthNet.uav[2] utilizationEnergyMission 3529.8347320557
scalar OsgEarthNet.uav[2] utilizationEnergyMaintenance 1178.9771232605
scalar OsgEarthNet.uav[2] utilizationEnergyCharge 4708.8120117188
scalar OsgEarthNet.uav[2] utilizationEnergyOverdrawMission 0
scalar OsgEarthNet.uav[2] utilizationEnergyOverdrawMaintenance 0
scalar OsgEarthNet.uav[2] utilizationCountMissions 1
scalar OsgEarthNet.uav[2] utilizationCountManeuversMission 11
scalar OsgEarthNet.uav[2] utilizationCountManeuversMaintenance 2
scalar OsgEarthNet.uav[2] utilizationCountChargeState 1
scalar OsgEarthNet.uav[2] utilizationCountOverdrawnAfterMission 0
scalar OsgEarthNet.uav[2] utilizationCountIdleState 2
scalar OsgEarthNet.uav[2] utilizationFail 0
scalar OsgEarthNet.uav[2] simulationTime 259200
scalar OsgEarthNet.uav[3] utilizationSecMission 358.46109636697
scalar OsgEarthNet.uav[3] utilizationSecMaintenance 663.28036682972
scalar OsgEarthNet.uav[3] utilizationSecCharge 3820
scalar OsgEarthNet.uav[3] utilizationSecIdle 254358.2575368
scalar OsgEarthNet.uav[3] utilizationEnergyMission 1675.60597229
scalar OsgEarthNet.uav[3] utilizationEnergyMaintenance 3184.1336898804
scalar OsgEarthNet.uav[3] utilizationEnergyCharge 4859.7353515625
scalar OsgEarthNet.uav[3] utilizationEnergyOverdrawMission 0
scalar OsgEarthNet.uav[3] utilizationEnergyOverdrawMaintenance 0
scalar OsgEarthNet.uav[3] utilizationCountMissions 1
scalar OsgEarthNet.uav[3] utilizationCountManeuversMission 6
scalar OsgEarthNet.uav[3] utilizationCountManeuversMaintenance 2
scalar OsgEarthNet.uav[3] utilizationCountChargeState 1
scalar OsgEarthNet.uav[3] utilizationCountOverdrawnAfterMission 0
scalar OsgEarthNet.uav[3] utilizationCountIdleState 2
scalar OsgEarthNet.uav[3] utilizationFail 0
scalar OsgEarthNet.uav[3] simulationTime 259200
scalar OsgEarthNet.uav[4] utilizationSecMission 27699.278899254
scalar OsgEarthNet.uav[4] utilizationSecMaintenance 20418.720100746
scalar OsgEarthNet.uav[4] utilizationSecCharge 175890
scalar OsgEarthNet.uav[4] utilizationSecIdle 35192
scalar OsgEarthNet.uav[4] utilizationEnergyMission 129207.00222216
scalar OsgEarthNet.uav[4] utilizationEnergyMaintenance 93562.328094482
scalar OsgEarthNet.uav[4] utilizationEnergyCharge 221113.21337891
scalar OsgEarthNet.uav[4] utilizationEnergyOverdrawMission 0
scalar OsgEarthNet.uav[4] utilizationEnergyOverdrawMaintenance 0
scalar OsgEarthNet.uav[4] utilizationCountMissions 48
scalar OsgEarthNet.uav[4] utilizationCountManeuversMission 452
scalar OsgEarthNet.uav[4] utilizationCountManeuversMaintenance 96
scalar OsgEarthNet.uav[4] utilizationCountChargeState 48
scalar OsgEarthNet.uav[4] utilizationCountOverdrawnAfterMission 0
scalar OsgEarthNet.uav[4] utilizationCountIdleState 49
scalar OsgEarthNet.uav[4] utilizationFail 0
scalar OsgEarthNet.uav[4] simulationTime 259200
scalar OsgEarthNet.uav[5] utilizationSecMission 750.20472747826
scalar OsgEarthNet.uav[5] utilizationSecMaintenance 255.5651663541
scalar OsgEarthNet.uav[5] utilizationSecCharge 3760
scalar OsgEarthNet.uav[5] utilizationSecIdle 254434.22910617
scalar OsgEarthNet.uav[5] utilizationEnergyMission 3503.3530273438
scalar OsgEarthNet.uav[5] utilizationEnergyMaintenance 1256.2743644714
scalar OsgEarthNet.uav[5] utilizationEnergyCharge 4759.6259765625
scalar OsgEarthNet.uav[5] utilizationEnergyOverdrawMission 0
scalar OsgEarthNet.uav[5] utilizationEnergyOverdrawMaintenance 0
scalar OsgEarthNet.uav[5] utilizationCountMissions 1
scalar OsgEarthNet.uav[5] utilizationCountManeuversMission 11
scalar OsgEarthNet.uav[5] utilizationCountManeuversMaintenance 2
scalar OsgEarthNet.uav[5] utilizationCountChargeState 1
scalar OsgEarthNet.uav[5] utilizationCountOverdrawnAfterMission 0
scalar OsgEarthNet.uav[5] utilizationCountIdleState 2
scalar OsgEarthNet.uav[5] utilizationFail 0
scalar OsgEarthNet.uav[5] simulationTime 259200
scalar OsgEarthNet.uav[6] utilizationSecMission 492.8023212615
scalar OsgEarthNet.uav[6] utilizationSecMaintenance 415.12299561987
scalar OsgEarthNet.uav[6] utilizationSecCharge 3660
scalar OsgEarthNet.uav[6] utilizationSecIdle 254632.07368312
scalar OsgEarthNet.uav[6] utilizationEnergyMission 2351.7465515137
scalar OsgEarthNet.uav[6] utilizationEnergyMaintenance 2201.6346054077
scalar OsgEarthNet.uav[6] utilizationEnergyCharge 4553.3774414062
scalar OsgEarthNet.uav[6] utilizationEnergyOverdrawMission 0
scalar OsgEarthNet.uav[6] utilizationEnergyOverdrawMaintenance 0
scalar OsgEarthNet.uav[6] utilizationCountMissions 1
scalar OsgEarthNet.uav[6] utilizationCountManeuversMission 7
scalar OsgEarthNet.uav[6] utilizationCountManeuversMaintenance 2
scalar OsgEarthNet.uav[6] utilizationCountChargeState 1
scalar OsgEarthNet.uav[6] utilizationCountOverdrawnAfterMission 0
scalar OsgEarthNet.uav[6] utilizationCountIdleState 2
scalar OsgEarthNet.uav[6] utilizationFail 0
scalar OsgEarthNet.uav[6] simulationTime 259200
scalar OsgEarthNet.uav[7] utilizationSecMission 502.567493222
scalar OsgEarthNet.uav[7] utilizationSecMaintenance 492.34067441359
scalar OsgEarthNet.uav[7] utilizationSecCharge 3840
scalar OsgEarthNet.uav[7] utilizationSecIdle 254365.09083236
scalar OsgEarthNet.uav[7] utilizationEnergyMission 2283.8026275635
scalar OsgEarthNet.uav[7] utilizationEnergyMaintenance 2433.2037162781
scalar OsgEarthNet.uav[7] utilizationEnergyCharge 4839.7534179688
scalar OsgEarthNet.uav[7] utilizationEnergyOverdrawMission 0
scalar OsgEarthNet.uav[7] utilizationEnergyOverdrawMaintenance 0
scalar OsgEarthNet.uav[7] utilizationCountMissions 1
scalar OsgEarthNet.uav[7] utilizationCountManeuversMission 8
scalar OsgEarthNet.uav[7] utilizationCountManeuversMaintenance 2
scalar OsgEarthNet.uav[7] utilizationCountChargeState 1
scalar OsgEarthNet.uav[7] utilizationCountOverdrawnAfterMission 0
scalar OsgEarthNet.uav[7] utilizationCountIdleState 2
scalar OsgEarthNet.uav[7] utilizationFail 0
scalar OsgEarthNet.uav[7] simulationTime 259200
scalar OsgEarthNet.uav[8] utilizationSecMission 25768.930434496
scalar OsgEarthNet.uav[8] utilizationSecMaintenance 19801.893455094
scalar OsgEarthNet.uav[8] utilizationSecCharge 165280
scalar OsgEarthNet.uav[8] utilizationSecIdle 48349.175110411
scalar OsgEarthNet.uav[8] utilizationEnergyMission 118461.35229863
scalar OsgEarthNet.uav[8] utilizationEnergyMaintenance 90351.70923996
scalar OsgEarthNet.uav[8] utilizationEnergyCharge 206178.73461914
scalar OsgEarthNet.uav[8] utilizationEnergyOverdrawMission 0
scalar OsgEarthNet.uav[8] utilizationEnergyOverdrawMaintenance 0
scalar OsgEarthNet.uav[8] utilizationCountMissions 46
scalar OsgEarthNet.uav[8] utilizationCountManeuversMission 427
scalar OsgEarthNet.uav[8] utilizationCountManeuversMaintenance 93
scalar OsgEarthNet.uav[8] utilizationCountChargeState 46
scalar OsgEarthNet.uav[8] utilizationCountOverdrawnAfterMission 0
scalar OsgEarthNet.uav[8] utilizationCountIdleState 47
scalar OsgEarthNet.uav[8] utilizationFail 0
scalar OsgEarthNet.uav[8] simulationTime 259200
scalar OsgEarthNet.uav[9] utilizationSecMission 760.62515258028
scalar OsgEarthNet.uav[9] utilizationSecMaintenance 202.91610409653
scalar OsgEarthNet.uav[9] utilizationSecCharge 3640
scalar OsgEarthNet.uav[9] utilizationSecIdle 254596.45774332
scalar OsgEarthNet.uav[9] utilizationEnergyMission 3558.5657196045
scalar OsgEarthNet.uav[9] utilizationEnergyMaintenance 970.48668670654
scalar OsgEarthNet.uav[9] utilizationEnergyCharge 4529.048828125
scalar OsgEarthNet.uav[9] utilizationEnergyOverdrawMission 0
scalar OsgEarthNet.uav[9] utilizationEnergyOverdrawMaintenance 0
scalar OsgEarthNet.uav[9] utilizationCountMissions 1
scalar OsgEarthNet.uav[9] utilizationCountManeuversMission 12
scalar OsgEarthNet.uav[9] utilizationCountManeuversMaintenance 2
scalar OsgEarthNet.uav[9] utilizationCountChargeState 1
scalar OsgEarthNet.uav[9] utilizationCountOverdrawnAfterMission 0
scalar OsgEarthNet.uav[9] utilizationCountIdleState 2
scalar OsgEarthNet.uav[9] utilizationFail 0
scalar OsgEarthNet.uav[9] simulationTime 259200
scalar OsgEarthNet.uav[10] utilizationSecMission 25974.573879808
scalar OsgEarthNet.uav[10] utilizationSecMaintenance 16683.602399962
scalar OsgEarthNet.uav[10] utilizationSecCharge 155330
scalar OsgEarthNet.uav[10] utilizationSecIdle 61211.82272023
scalar OsgEarthNet.uav[10] utilizationEnergyMission 119352.83515764
scalar OsgEarthNet.uav[10] utilizationEnergyMaintenance 77225.117649078
scalar OsgEarthNet.uav[10] utilizationEnergyCharge 194316.76953125
scalar OsgEarthNet.uav[10] utilizationEnergyOverdrawMission 0
scalar OsgEarthNet.uav[10] utilizationEnergyOverdrawMaintenance 0
scalar OsgEarthNet.uav[10] utilizationCountMissions 43
scalar OsgEarthNet.uav[10] utilizationCountManeuversMission 430
scalar OsgEarthNet.uav[10] utilizationCountManeuversMaintenance 87
scalar OsgEarthNet.uav[10] utilizationCountChargeState 43
scalar OsgEarthNet.uav[10] utilizationCountOverdrawnAfterMission 0
scalar OsgEarthNet.uav[10] utilizationCountIdleState 44
scalar OsgEarthNet.uav[10] utilizationFail 0
scalar OsgEarthNet.uav[10] simulationTime 259200
scalar OsgEarthNet.uav[11] utilizationSecMission 26985.050024662
scalar OsgEarthNet.uav[11] utilizationSecMaintenance 19459.695730818
scalar OsgEarthNet.uav[11] utilizationSecCharge 170760
scalar OsgEarthNet.uav[11] utilizationSecIdle 41995.253244521
scalar OsgEarthNet.uav[11] utilizationEnergyMission 124141.51374054
scalar OsgEarthNet.uav[11] utilizationEnergyMaintenance 90227.176677704
scalar OsgEarthNet.uav[11] utilizationEnergyCharge 213992.81860352
scalar OsgEarthNet.uav[11] utilizationEnergyOverdrawMission 0
scalar OsgEarthNet.uav[11] utilizationEnergyOverdrawMaintenance 0
scalar OsgEarthNet.uav[11] utilizationCountMissions 47
scalar OsgEarthNet.uav[11] utilizationCountManeuversMission 441
scalar OsgEarthNet.uav[11] utilizationCountManeuversMaintenance 94
scalar OsgEarthNet.uav[11] utilizationCountChargeState 47
scalar OsgEarthNet.uav[11] utilizationCountOverdrawnAfterMission 0
scalar OsgEarthNet.uav[11] utilizationCountIdleState 48
scalar OsgEarthNet.uav[11] utilizationFail 0
scalar OsgEarthNet.uav[11] simulationTime 259200
scalar OsgEarthNet.uav[12] utilizationSecMission 694.00169469977
scalar OsgEarthNet.uav[12] utilizationSecMaintenance 338.49695459722
scalar OsgEarthNet.uav[12] utilizationSecCharge 3590
scalar OsgEarthNet.uav[12] utilizationSecIdle 254577.5003507
scalar OsgEarthNet.uav[12] utilizationEnergyMission 3069.4499588013
scalar OsgEarthNet.uav[12] utilizationEnergyMaintenance 1426.7579460144
scalar OsgEarthNet.uav[12] utilizationEnergyCharge 4496.2104492188
scalar OsgEarthNet.uav[12] utilizationEnergyOverdrawMission 0
scalar OsgEarthNet.uav[12] utilizationEnergyOverdrawMaintenance 0
scalar OsgEarthNet.uav[12] utilizationCountMissions 1
scalar OsgEarthNet.uav[12] utilizationCountManeuversMission 13
scalar OsgEarthNet.uav[12] utilizationCountManeuversMaintenance 2
scalar OsgEarthNet.uav[12] utilizationCountChargeState 1
scalar OsgEarthNet.uav[12] utilizationCountOverdrawnAfterMission 0
scalar OsgEarthNet.uav[12] utilizationCountIdleState 2
scalar OsgEarthNet.uav[12] utilizationFail 0
scalar OsgEarthNet.uav[12] simulationTime 259200
scalar OsgEarthNet.uav[13] utilizationSecMission 313.66140879233
scalar OsgEarthNet.uav[13] utilizationSecMaintenance 473.03391658586
scalar OsgEarthNet.uav[13] utilizationSecCharge 3310
scalar OsgEarthNet.uav[13] utilizationSecIdle 255103.30367462
scalar OsgEarthNet.uav[13] utilizationEnergyMission 1569.7201843262
scalar OsgEarthNet.uav[13] utilizationEnergyMaintenance 2427.5924301147
scalar OsgEarthNet.uav[13] utilizationEnergyCharge 3997.3110351562
scalar OsgEarthNet.uav[13] utilizationEnergyOverdrawMission 0
scalar OsgEarthNet.uav[13] utilizationEnergyOverdrawMaintenance 0
scalar OsgEarthNet.uav[13] utilizationCountMissions 1
scalar OsgEarthNet.uav[13] utilizationCountManeuversMission 5
scalar OsgEarthNet.uav[13] utilizationCountManeuversMaintenance 2
scalar OsgEarthNet.uav[13] utilizationCountChargeState 1
scalar OsgEarthNet.uav[13] utilizationCountOverdrawnAfterMission 0
scalar OsgEarthNet.uav[13] utilizationCountIdleState 2
scalar OsgEarthNet.uav[13] utilizationFail 0
scalar OsgEarthNet.uav[13] simulationTime 259200
scalar OsgEarthNet.uav[14] utilizationSecMission 22383.23003603
scalar OsgEarthNet.uav[14] utilizationSecMaintenance 16121.602076323
scalar OsgEarthNet.uav[14] utilizationSecCharge 141611.40786546
scalar OsgEarthNet.uav[14] utilizationSecIdle 79083.759022191
scalar OsgEarthNet.uav[14] utilizationEnergyMission 104460.15545654
scalar OsgEarthNet.uav[14] utilizationEnergyMaintenance 75413.762386322
scalar OsgEarthNet.uav[14] utilizationEnergyCharge 179070.69238281
scalar OsgEarthNet.uav[14] utilizationEnergyOverdrawMission 0
scalar OsgEarthNet.uav[14] utilizationEnergyOverdrawMaintenance 0
scalar OsgEarthNet.uav[14] utilizationCountMissions 39
scalar OsgEarthNet.uav[14] utilizationCountManeuversMission 367
scalar OsgEarthNet.uav[14] utilizationCountManeuversMaintenance 78
scalar OsgEarthNet.uav[14] utilizationCountChargeState 39
scalar OsgEarthNet.uav[14] utilizationCountOverdrawnAfterMission 0
scalar OsgEarthNet.uav[14] utilizationCountIdleState 39
scalar OsgEarthNet.uav[14] utilizationFail 0
scalar OsgEarthNet.uav[14] simulationTime 259200
scalar OsgEarthNet.uav[15] utilizationSecMission 7349.3629815926
scalar OsgEarthNet.uav[15] utilizationSecMaintenance 4292.2003136408
scalar OsgEarthNet.uav[15] utilizationSecCharge 42780
scalar OsgEarthNet.uav[15] utilizationSecIdle 204778.43570477
scalar OsgEarthNet.uav[15] utilizationEnergyMission 33146.844314575
scalar OsgEarthNet.uav[15] utilizationEnergyMaintenance 20072.500347137
scalar OsgEarthNet.uav[15] utilizationEnergyCharge 53221.685791016
scalar OsgEarthNet.uav[15] utilizationEnergyOverdrawMission 0
scalar OsgEarthNet.uav[15] utilizationEnergyOverdrawMaintenance 0
scalar OsgEarthNet.uav[15] utilizationCountMissions 12
scalar OsgEarthNet.uav[15] utilizationCountManeuversMission 118
scalar OsgEarthNet.uav[15] utilizationCountManeuversMaintenance 24
scalar OsgEarthNet.uav[15] utilizationCountChargeState 12
scalar OsgEarthNet.uav[15] utilizationCountOverdrawnAfterMission 0
scalar OsgEarthNet.uav[15] utilizationCountIdleState 13
scalar OsgEarthNet.uav[15] utilizationFail 0
scalar OsgEarthNet.uav[15] simulationTime 259200
scalar OsgEarthNet.uav[16] utilizationSecMission 3838.7115563509
scalar OsgEarthNet.uav[16] utilizationSecMaintenance 1094.7648601107
scalar OsgEarthNet.uav[16] utilizationSecCharge 18310
scalar OsgEarthNet.uav[16] utilizationSecIdle 235956.52258354
scalar OsgEarthNet.uav[16] utilizationEnergyMission 17601.947471619
scalar OsgEarthNet.uav[16] utilizationEnergyMaintenance 5092.2696914673
scalar OsgEarthNet.uav[16] utilizationEnergyCharge 22906.764648438
scalar OsgEarthNet.uav[16] utilizationEnergyOverdrawMission 0
scalar OsgEarthNet.uav[16] utilizationEnergyOverdrawMaintenance 0
scalar OsgEarthNet.uav[16] utilizationCountMissions 5
scalar OsgEarthNet.uav[16] utilizationCountManeuversMission 60
scalar OsgEarthNet.uav[16] utilizationCountManeuversMaintenance 10
scalar OsgEarthNet.uav[16] utilizationCountChargeState 5
scalar OsgEarthNet.uav[16] utilizationCountOverdrawnAfterMission 0
scalar OsgEarthNet.uav[16] utilizationCountIdleState 6
scalar OsgEarthNet.uav[16] utilizationFail 0
scalar OsgEarthNet.uav[16] simulationTime 259200
scalar OsgEarthNet.uav[17] utilizationSecMission 29000.482646417
scalar OsgEarthNet.uav[17] utilizationSecMaintenance 15661.561025371
scalar OsgEarthNet.uav[17] utilizationSecCharge 162168.57132363
scalar OsgEarthNet.uav[17] utilizationSecIdle 52369.384004586
scalar OsgEarthNet.uav[17] utilizationEnergyMission 134855.59254456
scalar OsgEarthNet.uav[17] utilizationEnergyMaintenance 72993.098800659
scalar OsgEarthNet.uav[17] utilizationEnergyCharge 204702.90270996
scalar OsgEarthNet.uav[17] utilizationEnergyOverdrawMission 0
scalar OsgEarthNet.uav[17] utilizationEnergyOverdrawMaintenance 0
scalar OsgEarthNet.uav[17] utilizationCountMissions 45
scalar OsgEarthNet.uav[17] utilizationCountManeuversMission 469
scalar OsgEarthNet.uav[17] utilizationCountManeuversMaintenance 90
scalar OsgEarthNet.uav[17] utilizationCountChargeState 45
scalar OsgEarthNet.uav[17] utilizationCountOverdrawnAfterMission 0
scalar OsgEarthNet.uav[17] utilizationCountIdleState 45
scalar OsgEarthNet.uav[17] utilizationFail 0
scalar OsgEarthNet.uav[17] simulationTime 259200
scalar OsgEarthNet.uav[18] utilizationSecMission 946.1545473523
scalar OsgEarthNet.uav[18] utilizationSecMaintenance 162.42799022119
scalar OsgEarthNet.uav[18] utilizationSecCharge 3820
scalar OsgEarthNet.uav[18] utilizationSecIdle 254271.41646243
scalar OsgEarthNet.uav[18] utilizationEnergyMission 4156.1421890259
scalar OsgEarthNet.uav[18] utilizationEnergyMaintenance 756.25316619873
scalar OsgEarthNet.uav[18] utilizationEnergyCharge 4885.255859375
scalar OsgEarthNet.uav[18] utilizationEnergyOverdrawMission 0
scalar OsgEarthNet.uav[18] utilizationEnergyOverdrawMaintenance 0
scalar OsgEarthNet.uav[18] utilizationCountMissions 1
scalar OsgEarthNet.uav[18] utilizationCountManeuversMission 15
scalar OsgEarthNet.uav[18] utilizationCountManeuversMaintenance 2
scalar OsgEarthNet.uav[18] utilizationCountChargeState 1
scalar OsgEarthNet.uav[18] utilizationCountOverdrawnAfterMission 0
scalar OsgEarthNet.uav[18] utilizationCountIdleState 2
scalar OsgEarthNet.uav[18] utilizationFail 0
scalar OsgEarthNet.uav[18] simulationTime 259200
scalar OsgEarthNet.uav[19] utilizationSecMission 23303.048996879
scalar OsgEarthNet.uav[19] utilizationSecMaintenance 15339.307008181
scalar OsgEarthNet.uav[19] utilizationSecCharge 141613.94180908
scalar OsgEarthNet.uav[19] utilizationSecIdle 78943.701185865
scalar OsgEarthNet.uav[19] utilizationEnergyMission 107299.65652466
scalar OsgEarthNet.uav[19] utilizationEnergyMaintenance 70987.491325378
scalar OsgEarthNet.uav[19] utilizationEnergyCharge 177407.18579102
scalar OsgEarthNet.uav[19] utilizationEnergyOverdrawMission 0
scalar OsgEarthNet.uav[19] utilizationEnergyOverdrawMaintenance 0
scalar OsgEarthNet.uav[19] utilizationCountMissions 40
scalar OsgEarthNet.uav[19] utilizationCountManeuversMission 379
scalar OsgEarthNet.uav[19] utilizationCountManeuversMaintenance 80
scalar OsgEarthNet.uav[19] utilizationCountChargeState 40
scalar OsgEarthNet.uav[19] utilizationCountOverdrawnAfterMission 0
scalar OsgEarthNet.uav[19] utilizationCountIdleState 40
scalar OsgEarthNet.uav[19] utilizationFail 0
scalar OsgEarthNet.uav[19] simulationTime 259200
scalar OsgEarthNet.uav[20] utilizationSecMission 760.62515258028
scalar OsgEarthNet.uav[20] utilizationSecMaintenance 202.91610409653
scalar OsgEarthNet.uav[20] utilizationSecCharge 3530
scalar OsgEarthNet.uav[20] utilizationSecIdle 254706.45774332
scalar OsgEarthNet.uav[20] utilizationEnergyMission 3336.4807128906
scalar OsgEarthNet.uav[20] utilizationEnergyMaintenance 1007.4953231811
scalar OsgEarthNet.uav[20] utilizationEnergyCharge 4343.9765625
scalar OsgEarthNet.uav[20] utilizationEnergyOverdrawMission 0
scalar OsgEarthNet.uav[20] utilizationEnergyOverdrawMaintenance 0
scalar OsgEarthNet.uav[20] utilizationCountMissions 1
scalar OsgEarthNet.uav[20] utilizationCountManeuversMission 12
scalar OsgEarthNet.uav[20] utilizationCountManeuversMaintenance 2
scalar OsgEarthNet.uav[20] utilizationCountChargeState 1
scalar OsgEarthNet.uav[20] utilizationCountOverdrawnAfterMission 0
scalar OsgEarthNet.uav[20] utilizationCountIdleState 2
scalar OsgEarthNet.uav[20] utilizationFail 0
scalar OsgEarthNet.uav[20] simulationTime 259200
scalar OsgEarthNet.uav[21] utilizationSecMission 553.12566654921
scalar OsgEarthNet.uav[21] utilizationSecMaintenance 489.82638271256
scalar OsgEarthNet.uav[21] utilizationSecCharge 3800
scalar OsgEarthNet.uav[21] utilizationSecIdle 254357.04695074
scalar OsgEarthNet.uav[21] utilizationEnergyMission 2427.491973877
scalar OsgEarthNet.uav[21] utilizationEnergyMaintenance 2337.1764335632
scalar OsgEarthNet.uav[21] utilizationEnergyCharge 4827.994140625
scalar OsgEarthNet.uav[21] utilizationEnergyOverdrawMission 0
scalar OsgEarthNet.uav[21] utilizationEnergyOverdrawMaintenance 0
scalar OsgEarthNet.uav[21] utilizationCountMissions 1
scalar OsgEarthNet.uav[21] utilizationCountManeuversMission 9
scalar OsgEarthNet.uav[21] utilizationCountManeuversMaintenance 2
scalar OsgEarthNet.uav[21] utilizationCountChargeState 1
scalar OsgEarthNet.uav[21] utilizationCountOverdrawnAfterMission 0
scalar OsgEarthNet.uav[21] utilizationCountIdleState 2
scalar OsgEarthNet.uav[21] utilizationFail 0
scalar OsgEarthNet.uav[21] simulationTime 259200
scalar OsgEarthNet.uav[22] utilizationSecMission 694.00169469977
scalar OsgEarthNet.uav[22] utilizationSecMaintenance 338.49695459722
scalar OsgEarthNet.uav[22] utilizationSecCharge 3620
scalar OsgEarthNet.uav[22] utilizationSecIdle 254547.5003507
scalar OsgEarthNet.uav[22] utilizationEnergyMission 3057.024269104
scalar OsgEarthNet.uav[22] utilizationEnergyMaintenance 1482.7781486511
scalar OsgEarthNet.uav[22] utilizationEnergyCharge 4539.8051757812
scalar OsgEarthNet.uav[22] utilizationEnergyOverdrawMission 0
scalar OsgEarthNet.uav[22] utilizationEnergyOverdrawMaintenance 0
scalar OsgEarthNet.uav[22] utilizationCountMissions 1
scalar OsgEarthNet.uav[22] utilizationCountManeuversMission 13
scalar OsgEarthNet.uav[22] utilizationCountManeuversMaintenance 2
scalar OsgEarthNet.uav[22] utilizationCountChargeState 1
scalar OsgEarthNet.uav[22] utilizationCountOverdrawnAfterMission 0
scalar OsgEarthNet.uav[22] utilizationCountIdleState 2
scalar OsgEarthNet.uav[22] utilizationFail 0
scalar OsgEarthNet.uav[22] simulationTime 259200
scalar OsgEarthNet.uav[23] utilizationSecMission 760.62515258028
scalar OsgEarthNet.uav[23] utilizationSecMaintenance 202.91610409653
scalar OsgEarthNet.uav[23] utilizationSecCharge 3610
scalar OsgEarthNet.uav[23] utilizationSecIdle 254626.45774332
scalar OsgEarthNet.uav[23] utilizationEnergyMission 3605.1138458252
scalar OsgEarthNet.uav[23] utilizationEnergyMaintenance 917.3535079956
scalar OsgEarthNet.uav[23] utilizationEnergyCharge 4481.2099609375
scalar OsgEarthNet.uav[23] utilizationEnergyOverdrawMission 0
scalar OsgEarthNet.uav[23] utilizationEnergyOverdrawMaintenance 0
scalar OsgEarthNet.uav[23] utilizationCountMissions 1
scalar OsgEarthNet.uav[23] utilizationCountManeuversMission 12
scalar OsgEarthNet.uav[23] utilizationCountManeuversMaintenance 2
scalar OsgEarthNet.uav[23] utilizationCountChargeState 1
scalar OsgEarthNet.uav[23] utilizationCountOverdrawnAfterMission 0
scalar OsgEarthNet.uav[23] utilizationCountIdleState 2
scalar OsgEarthNet.uav[23] utilizationFail 0
scalar OsgEarthNet.uav[23] simulationTime 259200
scalar OsgEarthNet.uav[24] utilizationSecMission 694.00169469977
scalar OsgEarthNet.uav[24] utilizationSecMaintenance 349.76607937241
scalar OsgEarthNet.uav[24] utilizationSecCharge 3800
scalar OsgEarthNet.uav[24] utilizationSecIdle 254356.23122593
scalar OsgEarthNet.uav[24] utilizationEnergyMission 3323.4981307983
scalar OsgEarthNet.uav[24] utilizationEnergyMaintenance 1542.9329338074
scalar OsgEarthNet.uav[24] utilizationEnergyCharge 4866.4291992188
scalar OsgEarthNet.uav[24] utilizationEnergyOverdrawMission 0
scalar OsgEarthNet.uav[24] utilizationEnergyOverdrawMaintenance 0
scalar OsgEarthNet.uav[24] utilizationCountMissions 1
scalar OsgEarthNet.uav[24] utilizationCountManeuversMission 13
scalar OsgEarthNet.uav[24] utilizationCountManeuversMaintenance 2
scalar OsgEarthNet.uav[24] utilizationCountChargeState 1
scalar OsgEarthNet.uav[24] utilizationCountOverdrawnAfterMission 0
scalar OsgEarthNet.uav[24] utilizationCountIdleState 2
scalar OsgEarthNet.uav[24] utilizationFail 0
scalar OsgEarthNet.uav[24] simulationTime 259200
scalar OsgEarthNet.uav[25] utilizationSecMission 694.00169469977
scalar OsgEarthNet.uav[25] utilizationSecMaintenance 338.49695459722
scalar OsgEarthNet.uav[25] utilizationSecCharge 3880
scalar OsgEarthNet.uav[25] utilizationSecIdle 254287.5003507
scalar OsgEarthNet.uav[25] utilizationEnergyMission 3275.9767990112
scalar OsgEarthNet.uav[25] utilizationEnergyMaintenance 1682.6942863464
scalar OsgEarthNet.uav[25] utilizationEnergyCharge 4958.6674804688
scalar OsgEarthNet.uav[25] utilizationEnergyOverdrawMission 0
scalar OsgEarthNet.uav[25] utilizationEnergyOverdrawMaintenance 0
scalar OsgEarthNet.uav[25] utilizationCountMissions 1
scalar OsgEarthNet.uav[25] utilizationCountManeuversMission 13
scalar OsgEarthNet.uav[25] utilizationCountManeuversMaintenance 2
scalar OsgEarthNet.uav[25] utilizationCountChargeState 1
scalar OsgEarthNet.uav[25] utilizationCountOverdrawnAfterMission 0
scalar OsgEarthNet.uav[25] utilizationCountIdleState 2
scalar OsgEarthNet.uav[25] utilizationFail 0
scalar OsgEarthNet.uav[25] simulationTime 259200
scalar OsgEarthNet.uav[26] utilizationSecMission 760.62515258028
scalar OsgEarthNet.uav[26] utilizationSecMaintenance 202.91610409653
scalar OsgEarthNet.uav[26] utilizationSecCharge 3450
scalar OsgEarthNet.uav[26] utilizationSecIdle 254786.45774332
scalar OsgEarthNet.uav[26] utilizationEnergyMission 3351.3530578613
scalar OsgEarthNet.uav[26] utilizationEnergyMaintenance 953.40322113037
scalar OsgEarthNet.uav[26] utilizationEnergyCharge 4214.76953125
scalar OsgEarthNet.uav[26] utilizationEnergyOverdrawMission 0
scalar OsgEarthNet.uav[26] utilizationEnergyOverdrawMaintenance 0
scalar OsgEarthNet.uav[26] utilizationCountMissions 1
scalar OsgEarthNet.uav[26] utilizationCountManeuversMission 12
scalar OsgEarthNet.uav[26] utilizationCountManeuversMaintenance 2
scalar OsgEarthNet.uav[26] utilizationCountChargeState 1
scalar OsgEarthNet.uav[26] utilizationCountOverdrawnAfterMission 0
scalar OsgEarthNet.uav[26] utilizationCountIdleState 2
scalar OsgEarthNet.uav[26] utilizationFail 0
scalar OsgEarthNet.uav[26] simulationTime 259200
scalar OsgEarthNet.uav[27] utilizationSecMission 26498.242216753
scalar OsgEarthNet.uav[27] utilizationSecMaintenance 17700.700979286
scalar OsgEarthNet.uav[27] utilizationSecCharge 159610
scalar OsgEarthNet.uav[27] utilizationSecIdle 55391.055803961
scalar OsgEarthNet.uav[27] utilizationEnergyMission 123338.64840698
scalar OsgEarthNet.uav[27] utilizationEnergyMaintenance 81321.146257346
scalar OsgEarthNet.uav[27] utilizationEnergyCharge 200190.44384766
scalar OsgEarthNet.uav[27] utilizationEnergyOverdrawMission 0
scalar OsgEarthNet.uav[27] utilizationEnergyOverdrawMaintenance 0
scalar OsgEarthNet.uav[27] utilizationCountMissions 45
scalar OsgEarthNet.uav[27] utilizationCountManeuversMission 440
scalar OsgEarthNet.uav[27] utilizationCountManeuversMaintenance 90
scalar OsgEarthNet.uav[27] utilizationCountChargeState 44
scalar OsgEarthNet.uav[27] utilizationCountOverdrawnAfterMission 0
scalar OsgEarthNet.uav[27] utilizationCountIdleState 45
scalar OsgEarthNet.uav[27] utilizationFail 0
scalar OsgEarthNet.uav[27] simulationTime 259200
scalar OsgEarthNet.uav[28] utilizationSecMission 887.1741082606
scalar OsgEarthNet.uav[28] utilizationSecMaintenance 148.2728194454
scalar OsgEarthNet.uav[28] utilizationSecCharge 3770
scalar OsgEarthNet.uav[28] utilizationSecIdle 254394.55207229
scalar OsgEarthNet.uav[28] utilizationEnergyMission 4226.7733764648
scalar OsgEarthNet.uav[28] utilizationEnergyMaintenance 781.73909759521
scalar OsgEarthNet.uav[28] utilizationEnergyCharge 4752.9677734375
scalar OsgEarthNet.uav[28] utilizationEnergyOverdrawMission 0
scalar OsgEarthNet.uav[28] utilizationEnergyOverdrawMaintenance 0
scalar OsgEarthNet.uav[28] utilizationCountMissions 1
scalar OsgEarthNet.uav[28] utilizationCountManeuversMission 14
scalar OsgEarthNet.uav[28] utilizationCountManeuversMaintenance 2
scalar OsgEarthNet.uav[28] utilizationCountChargeState 1
scalar OsgEarthNet.uav[28] utilizationCountOverdrawnAfterMission 0
scalar OsgEarthNet.uav[28] utilizationCountIdleState 2
scalar OsgEarthNet.uav[28] utilizationFail 0
scalar OsgEarthNet.uav[28] simulationTime 259200
scalar OsgEarthNet.uav[29] utilizationSecMission 536.06111026321
scalar OsgEarthNet.uav[29] utilizationSecMaintenance 387.76056727994
scalar OsgEarthNet.uav[29] utilizationSecCharge 3510
scalar OsgEarthNet.uav[29] utilizationSecIdle 254766.17732246
scalar OsgEarthNet.uav[29] utilizationEnergyMission 2388.6832427979
scalar OsgEarthNet.uav[29] utilizationEnergyMaintenance 1965.2423934937
scalar OsgEarthNet.uav[29] utilizationEnergyCharge 4353.9262695312
scalar OsgEarthNet.uav[29] utilizationEnergyOverdrawMission 0
scalar OsgEarthNet.uav[29] utilizationEnergyOverdrawMaintenance 0
scalar OsgEarthNet.uav[29] utilizationCountMissions 1
scalar OsgEarthNet.uav[29] utilizationCountManeuversMission 8
scalar OsgEarthNet.uav[29] utilizationCountManeuversMaintenance 2
scalar OsgEarthNet.uav[29] utilizationCountChargeState 1
scalar OsgEarthNet.uav[29] utilizationCountOverdrawnAfterMission 0
scalar OsgEarthNet.uav[29] utilizationCountIdleState 2
scalar OsgEarthNet.uav[29] utilizationFail 0
scalar OsgEarthNet.uav[29] simulationTime 259200
scalar OsgEarthNet.uav[30] utilizationSecMission 32275.068020933
scalar OsgEarthNet.uav[30] utilizationSecMaintenance 16662.850764454
scalar OsgEarthNet.uav[30] utilizationSecCharge 176560.08021461
scalar OsgEarthNet.uav[30] utilizationSecIdle 33702
scalar OsgEarthNet.uav[30] utilizationEnergyMission 148638.01950073
scalar OsgEarthNet.uav[30] utilizationEnergyMaintenance 76691.294963837
scalar OsgEarthNet.uav[30] utilizationEnergyCharge 222267.92089844
scalar OsgEarthNet.uav[30] utilizationEnergyOverdrawMission 0
scalar OsgEarthNet.uav[30] utilizationEnergyOverdrawMaintenance 0
scalar OsgEarthNet.uav[30] utilizationCountMissions 49
scalar OsgEarthNet.uav[30] utilizationCountManeuversMission 522
scalar OsgEarthNet.uav[30] utilizationCountManeuversMaintenance 97
scalar OsgEarthNet.uav[30] utilizationCountChargeState 49
scalar OsgEarthNet.uav[30] utilizationCountOverdrawnAfterMission 0
scalar OsgEarthNet.uav[30] utilizationCountIdleState 49
scalar OsgEarthNet.uav[30] utilizationFail 0
scalar OsgEarthNet.uav[30] simulationTime 259200
scalar OsgEarthNet.uav[31] utilizationSecMission 694.00169469977
scalar OsgEarthNet.uav[31] utilizationSecMaintenance 349.76607937241
scalar OsgEarthNet.uav[31] utilizationSecCharge 3690
scalar OsgEarthNet.uav[31] utilizationSecIdle 254466.23122593
scalar OsgEarthNet.uav[31] utilizationEnergyMission 3142.6424560547
scalar OsgEarthNet.uav[31] utilizationEnergyMaintenance 1502.4643669128
scalar OsgEarthNet.uav[31] utilizationEnergyCharge 4645.1040039062
scalar OsgEarthNet.uav[31] utilizationEnergyOverdrawMission 0
scalar OsgEarthNet.uav[31] utilizationEnergyOverdrawMaintenance 0
scalar OsgEarthNet.uav[31] utilizationCountMissions 1
scalar OsgEarthNet.uav[31] utilizationCountManeuversMission 13
scalar OsgEarthNet.uav[31] utilizationCountManeuversMaintenance 2
scalar OsgEarthNet.uav[31] utilizationCountChargeState 1
scalar OsgEarthNet.uav[31] utilizationCountOverdrawnAfterMission 0
scalar OsgEarthNet.uav[31] utilizationCountIdleState 2
scalar OsgEarthNet.uav[31] utilizationFail 0
scalar OsgEarthNet.uav[31] simulationTime 259200
scalar OsgEarthNet.uav[32] utilizationSecMission 750.20472747826
scalar OsgEarthNet.uav[32] utilizationSecMaintenance 255.5651663541
scalar OsgEarthNet.uav[32] utilizationSecCharge 3590
scalar OsgEarthNet.uav[32] utilizationSecIdle 254604.22910617
scalar OsgEarthNet.uav[32] utilizationEnergyMission 3246.7334594727
scalar OsgEarthNet.uav[32] utilizationEnergyMaintenance 1239.6436882019
scalar OsgEarthNet.uav[32] utilizationEnergyCharge 4486.376953125
scalar OsgEarthNet.uav[32] utilizationEnergyOverdrawMission 0
scalar OsgEarthNet.uav[32] utilizationEnergyOverdrawMaintenance 0
scalar OsgEarthNet.uav[32] utilizationCountMissions 1
scalar OsgEarthNet.uav[32] utilizationCountManeuversMission 11
scalar OsgEarthNet.uav[32] utilizationCountManeuversMaintenance 2
scalar OsgEarthNet.uav[32] utilizationCountChargeState 1
scalar OsgEarthNet.uav[32] utilizationCountOverdrawnAfterMission 0
scalar OsgEarthNet.uav[32] utilizationCountIdleState 2
scalar OsgEarthNet.uav[32] utilizationFail 0
scalar OsgEarthNet.uav[32] simulationTime 259200
scalar OsgEarthNet.uav[33] utilizationSecMission 538.70011096482
scalar OsgEarthNet.uav[33] utilizationSecMaintenance 477.73889354078
scalar OsgEarthNet.uav[33] utilizationSecCharge 3690
scalar OsgEarthNet.uav[33] utilizationSecIdle 254493.55999549
scalar OsgEarthNet.uav[33] utilizationEnergyMission 2361.1717224121
scalar OsgEarthNet.uav[33] utilizationEnergyMaintenance 2302.9604606628
scalar OsgEarthNet.uav[33] utilizationEnergyCharge 4664.130859375
scalar OsgEarthNet.uav[33] utilizationEnergyOverdrawMission 0
scalar OsgEarthNet.uav[33] utilizationEnergyOverdrawMaintenance 0
scalar OsgEarthNet.uav[33] utilizationCountMissions 1
scalar OsgEarthNet.uav[33] utilizationCountManeuversMission 9
scalar OsgEarthNet.uav[33] utilizationCountManeuversMaintenance 2
scalar OsgEarthNet.uav[33] utilizationCountChargeState 1
scalar OsgEarthNet.uav[33] utilizationCountOverdrawnAfterMission 0
scalar OsgEarthNet.uav[33] utilizationCountIdleState 2
scalar OsgEarthNet.uav[33] utilizationFail 0
scalar OsgEarthNet.uav[33] simulationTime 259200
scalar OsgEarthNet.uav[34] utilizationSecMission 528.55000878666
scalar OsgEarthNet.uav[34] utilizationSecMaintenance 413.64453676047
scalar OsgEarthNet.uav[34] utilizationSecCharge 3490
scalar OsgEarthNet.uav[34] utilizationSecIdle 254767.80445445
scalar OsgEarthNet.uav[34] utilizationEnergyMission 2392.972946167
scalar OsgEarthNet.uav[34] utilizationEnergyMaintenance 1940.191734314
scalar OsgEarthNet.uav[34] utilizationEnergyCharge 4333.1635742188
scalar OsgEarthNet.uav[34] utilizationEnergyOverdrawMission 0
scalar OsgEarthNet.uav[34] utilizationEnergyOverdrawMaintenance 0
scalar OsgEarthNet.uav[34] utilizationCountMissions 1
scalar OsgEarthNet.uav[34] utilizationCountManeuversMission 10
scalar OsgEarthNet.uav[34] utilizationCountManeuversMaintenance 2
scalar OsgEarthNet.uav[34] utilizationCountChargeState 1
scalar OsgEarthNet.uav[34] utilizationCountOverdrawnAfterMission 0
scalar OsgEarthNet.uav[34] utilizationCountIdleState 2
scalar OsgEarthNet.uav[34] utilizationFail 0
scalar OsgEarthNet.uav[34] simulationTime 259200
scalar OsgEarthNet.uav[35] utilizationSecMission 3706.3734403754
scalar OsgEarthNet.uav[35] utilizationSecMaintenance 2290.7629827322
scalar OsgEarthNet.uav[35] utilizationSecCharge 21490
scalar OsgEarthNet.uav[35] utilizationSecIdle 231712.86257689
scalar OsgEarthNet.uav[35] utilizationEnergyMission 16569.426475525
scalar OsgEarthNet.uav[35] utilizationEnergyMaintenance 10241.373695374
scalar OsgEarthNet.uav[35] utilizationEnergyCharge 26699.216308594
scalar OsgEarthNet.uav[35] utilizationEnergyOverdrawMission 0
scalar OsgEarthNet.uav[35] utilizationEnergyOverdrawMaintenance 0
scalar OsgEarthNet.uav[35] utilizationCountMissions 6
scalar OsgEarthNet.uav[35] utilizationCountManeuversMission 63
scalar OsgEarthNet.uav[35] utilizationCountManeuversMaintenance 12
scalar OsgEarthNet.uav[35] utilizationCountChargeState 6
scalar OsgEarthNet.uav[35] utilizationCountOverdrawnAfterMission 0
scalar OsgEarthNet.uav[35] utilizationCountIdleState 7
scalar OsgEarthNet.uav[35] utilizationFail 0
scalar OsgEarthNet.uav[35] simulationTime 259200
scalar OsgEarthNet.uav[36] utilizationSecMission 735.14326557473
scalar OsgEarthNet.uav[36] utilizationSecMaintenance 350.53687742834
scalar OsgEarthNet.uav[36] utilizationSecCharge 3830
scalar OsgEarthNet.uav[36] utilizationSecIdle 254284.318857
scalar OsgEarthNet.uav[36] utilizationEnergyMission 3275.8191375732
scalar OsgEarthNet.uav[36] utilizationEnergyMaintenance 1706.3567886353
scalar OsgEarthNet.uav[36] utilizationEnergyCharge 4854.6108398438
scalar OsgEarthNet.uav[36] utilizationEnergyOverdrawMission 0
scalar OsgEarthNet.uav[36] utilizationEnergyOverdrawMaintenance 0
scalar OsgEarthNet.uav[36] utilizationCountMissions 1
scalar OsgEarthNet.uav[36] utilizationCountManeuversMission 11
scalar OsgEarthNet.uav[36] utilizationCountManeuversMaintenance 2
scalar OsgEarthNet.uav[36] utilizationCountChargeState 1
scalar OsgEarthNet.uav[36] utilizationCountOverdrawnAfterMission 0
scalar OsgEarthNet.uav[36] utilizationCountIdleState 2
scalar OsgEarthNet.uav[36] utilizationFail 0
scalar OsgEarthNet.uav[36] simulationTime 259200
scalar OsgEarthNet.uav[37] utilizationSecMission 3627.3049133095
scalar OsgEarthNet.uav[37] utilizationSecMaintenance 3250.4647094535
scalar OsgEarthNet.uav[37] utilizationSecCharge 22032.012590244
scalar OsgEarthNet.uav[37] utilizationSecIdle 230290.21678699
scalar OsgEarthNet.uav[37] utilizationEnergyMission 16661.933151245
scalar OsgEarthNet.uav[37] utilizationEnergyMaintenance 15305.275154114
scalar OsgEarthNet.uav[37] utilizationEnergyCharge 27688.546813965
scalar OsgEarthNet.uav[37] utilizationEnergyOverdrawMission 0
scalar OsgEarthNet.uav[37] utilizationEnergyOverdrawMaintenance 0
scalar OsgEarthNet.uav[37] utilizationCountMissions 7
scalar OsgEarthNet.uav[37] utilizationCountManeuversMission 61
scalar OsgEarthNet.uav[37] utilizationCountManeuversMaintenance 14
scalar OsgEarthNet.uav[37] utilizationCountChargeState 7
scalar OsgEarthNet.uav[37] utilizationCountOverdrawnAfterMission 0
scalar OsgEarthNet.uav[37] utilizationCountIdleState 7
scalar OsgEarthNet.uav[37] utilizationFail 0
scalar OsgEarthNet.uav[37] simulationTime 259200
scalar OsgEarthNet.uav[38] utilizationSecMission 750.20472747826
scalar OsgEarthNet.uav[38] utilizationSecMaintenance 255.5651663541
scalar OsgEarthNet.uav[38] utilizationSecCharge 3600
scalar OsgEarthNet.uav[38] utilizationSecIdle 254594.22910617
scalar OsgEarthNet.uav[38] utilizationEnergyMission 3330.2722473145
scalar OsgEarthNet.uav[38] utilizationEnergyMaintenance 1149.8275260925
scalar OsgEarthNet.uav[38] utilizationEnergyCharge 4480.0986328125
scalar OsgEarthNet.uav[38] utilizationEnergyOverdrawMission 0
scalar OsgEarthNet.uav[38] utilizationEnergyOverdrawMaintenance 0
scalar OsgEarthNet.uav[38] utilizationCountMissions 1
scalar OsgEarthNet.uav[38] utilizationCountManeuversMission 11
scalar OsgEarthNet.uav[38] utilizationCountManeuversMaintenance 2
scalar OsgEarthNet.uav[38] utilizationCountChargeState 1
scalar OsgEarthNet.uav[38] utilizationCountOverdrawnAfterMission 0
scalar OsgEarthNet.uav[38] utilizationCountIdleState 2
scalar OsgEarthNet.uav[38] utilizationFail 0
scalar OsgEarthNet.uav[38] simulationTime 259200
scalar OsgEarthNet.uav[39] utilizationSecMission 28859.120218003
scalar OsgEarthNet.uav[39] utilizationSecMaintenance 15722.770255226
scalar OsgEarthNet.uav[39] utilizationSecCharge 162541.46077355
scalar OsgEarthNet.uav[39] utilizationSecIdle 52076.64775322
scalar OsgEarthNet.uav[39] utilizationEnergyMission 133619.98265076
scalar OsgEarthNet.uav[39] utilizationEnergyMaintenance 72428.287265778
scalar OsgEarthNet.uav[39] utilizationEnergyCharge 203363.72070312
scalar OsgEarthNet.uav[39] utilizationEnergyOverdrawMission 0
scalar OsgEarthNet.uav[39] utilizationEnergyOverdrawMaintenance 0
scalar OsgEarthNet.uav[39] utilizationCountMissions 46
scalar OsgEarthNet.uav[39] utilizationCountManeuversMission 472
scalar OsgEarthNet.uav[39] utilizationCountManeuversMaintenance 92
scalar OsgEarthNet.uav[39] utilizationCountChargeState 46
scalar OsgEarthNet.uav[39] utilizationCountOverdrawnAfterMission 0
scalar OsgEarthNet.uav[39] utilizationCountIdleState 46
scalar OsgEarthNet.uav[39] utilizationFail 0
scalar OsgEarthNet.uav[39] simulationTime 259200
scalar OsgEarthNet.uav[40] utilizationSecMission 760.62515258028
scalar OsgEarthNet.uav[40] utilizationSecMaintenance 202.91610409653
scalar OsgEarthNet.uav[40] utilizationSecCharge 3670
scalar OsgEarthNet.uav[40] utilizationSecIdle 254566.45774332
scalar OsgEarthNet.uav[40] utilizationEnergyMission 3588.7870025635
scalar OsgEarthNet.uav[40] utilizationEnergyMaintenance 995.15566253662
scalar OsgEarthNet.uav[40] utilizationEnergyCharge 4598.2329101562
scalar OsgEarthNet.uav[40] utilizationEnergyOverdrawMission 0
scalar OsgEarthNet.uav[40] utilizationEnergyOverdrawMaintenance 0
scalar OsgEarthNet.uav[40] utilizationCountMissions 1
scalar OsgEarthNet.uav[40] utilizationCountManeuversMission 12
scalar OsgEarthNet.uav[40] utilizationCountManeuversMaintenance 2
scalar OsgEarthNet.uav[40] utilizationCountChargeState 1
scalar OsgEarthNet.uav[40] utilizationCountOverdrawnAfterMission 0
scalar OsgEarthNet.uav[40] utilizationCountIdleState 2
scalar OsgEarthNet.uav[40] utilizationFail 0
scalar OsgEarthNet.uav[40] simulationTime 259200
scalar OsgEarthNet.uav[41] utilizationSecMission 1229.9759985878
scalar OsgEarthNet.uav[41] utilizationSecMaintenance 742.07680949963
scalar OsgEarthNet.uav[41] utilizationSecCharge 7470
scalar OsgEarthNet.uav[41] utilizationSecIdle 249757.94619191
scalar OsgEarthNet.uav[41] utilizationEnergyMission 5852.352355957
scalar OsgEarthNet.uav[41] utilizationEnergyMaintenance 3637.7673721314
scalar OsgEarthNet.uav[41] utilizationEnergyCharge 9481.0009765625
scalar OsgEarthNet.uav[41] utilizationEnergyOverdrawMission 0
scalar OsgEarthNet.uav[41] utilizationEnergyOverdrawMaintenance 0
scalar OsgEarthNet.uav[41] utilizationCountMissions 2
scalar OsgEarthNet.uav[41] utilizationCountManeuversMission 21
scalar OsgEarthNet.uav[41] utilizationCountManeuversMaintenance 4
scalar OsgEarthNet.uav[41] utilizationCountChargeState 2
scalar OsgEarthNet.uav[41] utilizationCountOverdrawnAfterMission 0
scalar OsgEarthNet.uav[41] utilizationCountIdleState 3
scalar OsgEarthNet.uav[41] utilizationFail 0
scalar OsgEarthNet.uav[41] simulationTime 259200
scalar OsgEarthNet.uav[42] utilizationSecMission 29364.202794089
scalar OsgEarthNet.uav[42] utilizationSecMaintenance 18716.899830767
scalar OsgEarthNet.uav[42] utilizationSecCharge 173040
scalar OsgEarthNet.uav[42] utilizationSecIdle 38078.896375144
scalar OsgEarthNet.uav[42] utilizationEnergyMission 134652.14419556
scalar OsgEarthNet.uav[42] utilizationEnergyMaintenance 87054.965259485
scalar OsgEarthNet.uav[42] utilizationEnergyCharge 217589.06396484
scalar OsgEarthNet.uav[42] utilizationEnergyOverdrawMission 0
scalar OsgEarthNet.uav[42] utilizationEnergyOverdrawMaintenance 0
scalar OsgEarthNet.uav[42] utilizationCountMissions 48
scalar OsgEarthNet.uav[42] utilizationCountManeuversMission 482
scalar OsgEarthNet.uav[42] utilizationCountManeuversMaintenance 96
scalar OsgEarthNet.uav[42] utilizationCountChargeState 47
scalar OsgEarthNet.uav[42] utilizationCountOverdrawnAfterMission 0
scalar OsgEarthNet.uav[42] utilizationCountIdleState 48
scalar OsgEarthNet.uav[42] utilizationFail 0
scalar OsgEarthNet.uav[42] simulationTime 259200
scalar OsgEarthNet.uav[43] utilizationSecMission 15269.352215274
scalar OsgEarthNet.uav[43] utilizationSecMaintenance 9584.6679100115
scalar OsgEarthNet.uav[43] utilizationSecCharge 91350
scalar OsgEarthNet.uav[43] utilizationSecIdle 142995.97887471
scalar OsgEarthNet.uav[43] utilizationEnergyMission 70451.52684021
scalar OsgEarthNet.uav[43] utilizationEnergyMaintenance 44377.028423309
scalar OsgEarthNet.uav[43] utilizationEnergyCharge 114539.10449219
scalar OsgEarthNet.uav[43] utilizationEnergyOverdrawMission 0
scalar OsgEarthNet.uav[43] utilizationEnergyOverdrawMaintenance 0
scalar OsgEarthNet.uav[43] utilizationCountMissions 25
scalar OsgEarthNet.uav[43] utilizationCountManeuversMission 248
scalar OsgEarthNet.uav[43] utilizationCountManeuversMaintenance 50
scalar OsgEarthNet.uav[43] utilizationCountChargeState 25
scalar OsgEarthNet.uav[43] utilizationCountOverdrawnAfterMission 0
scalar OsgEarthNet.uav[43] utilizationCountIdleState 26
scalar OsgEarthNet.uav[43] utilizationFail 0
scalar OsgEarthNet.uav[43] simulationTime 259200
scalar OsgEarthNet.uav[44] utilizationSecMission 17344.214343661
scalar OsgEarthNet.uav[44] utilizationSecMaintenance 13563.285471671
scalar OsgEarthNet.uav[44] utilizationSecCharge 111415.93329586
scalar OsgEarthNet.uav[44] utilizationSecIdle 116876.56588881
scalar OsgEarthNet.uav[44] utilizationEnergyMission 80294.609710693
scalar OsgEarthNet.uav[44] utilizationEnergyMaintenance 63281.015777588
scalar OsgEarthNet.uav[44] utilizationEnergyCharge 140539.60546875
scalar OsgEarthNet.uav[44] utilizationEnergyOverdrawMission 0
scalar OsgEarthNet.uav[44] utilizationEnergyOverdrawMaintenance 0
scalar OsgEarthNet.uav[44] utilizationCountMissions 31
scalar OsgEarthNet.uav[44] utilizationCountManeuversMission 301
scalar OsgEarthNet.uav[44] utilizationCountManeuversMaintenance 62
scalar OsgEarthNet.uav[44] utilizationCountChargeState 31
scalar OsgEarthNet.uav[44] utilizationCountOverdrawnAfterMission 0
scalar OsgEarthNet.uav[44] utilizationCountIdleState 31
scalar OsgEarthNet.uav[44] utilizationFail 0
scalar OsgEarthNet.uav[44] simulationTime 259200
scalar OsgEarthNet.uav[45] utilizationSecMission 30432.887779021
scalar OsgEarthNet.uav[45] utilizationSecMaintenance 18393.453128598
scalar OsgEarthNet.uav[45] utilizationSecCharge 175751.65809238
scalar OsgEarthNet.uav[45] utilizationSecIdle 34622
scalar OsgEarthNet.uav[45] utilizationEnergyMission 140415.48136727
scalar OsgEarthNet.uav[45] utilizationEnergyMaintenance 84604.927471161
scalar OsgEarthNet.uav[45] utilizationEnergyCharge 220755.44146729
scalar OsgEarthNet.uav[45] utilizationEnergyOverdrawMission 0
scalar OsgEarthNet.uav[45] utilizationEnergyOverdrawMaintenance 0
scalar OsgEarthNet.uav[45] utilizationCountMissions 49
scalar OsgEarthNet.uav[45] utilizationCountManeuversMission 490
scalar OsgEarthNet.uav[45] utilizationCountManeuversMaintenance 97
scalar OsgEarthNet.uav[45] utilizationCountChargeState 49
scalar OsgEarthNet.uav[45] utilizationCountOverdrawnAfterMission 0
scalar OsgEarthNet.uav[45] utilizationCountIdleState 49
scalar OsgEarthNet.uav[45] utilizationFail 0
scalar OsgEarthNet.uav[45] simulationTime 259200
scalar OsgEarthNet.uav[46] utilizationSecMission 557.08549766445
scalar OsgEarthNet.uav[46] utilizationSecMaintenance 423.57904092458
scalar OsgEarthNet.uav[46] utilizationSecCharge 3750
scalar OsgEarthNet.uav[46] utilizationSecIdle 254469.33446141
scalar OsgEarthNet.uav[46] utilizationEnergyMission 2789.5892181396
scalar OsgEarthNet.uav[46] utilizationEnergyMaintenance 2045.652305603
scalar OsgEarthNet.uav[46] utilizationEnergyCharge 4706.9389648438
scalar OsgEarthNet.uav[46] utilizationEnergyOverdrawMission 0
scalar OsgEarthNet.uav[46] utilizationEnergyOverdrawMaintenance 0
scalar OsgEarthNet.uav[46] utilizationCountMissions 1
scalar OsgEarthNet.uav[46] utilizationCountManeuversMission 9
scalar OsgEarthNet.uav[46] utilizationCountManeuversMaintenance 2
scalar OsgEarthNet.uav[46] utilizationCountChargeState 1
scalar OsgEarthNet.uav[46] utilizationCountOverdrawnAfterMission 0
scalar OsgEarthNet.uav[46] utilizationCountIdleState 2
scalar OsgEarthNet.uav[46] utilizationFail 0
scalar OsgEarthNet.uav[46] simulationTime 259200
scalar OsgEarthNet.uav[47] utilizationSecMission 694.00169469977
scalar OsgEarthNet.uav[47] utilizationSecMaintenance 349.76607937241
scalar OsgEarthNet.uav[47] utilizationSecCharge 3760
scalar OsgEarthNet.uav[47] utilizationSecIdle 254396.23122593
scalar OsgEarthNet.uav[47] utilizationEnergyMission 3349.7105789185
scalar OsgEarthNet.uav[47] utilizationEnergyMaintenance 1426.8852043152
scalar OsgEarthNet.uav[47] utilizationEnergyCharge 4776.5966796875
scalar OsgEarthNet.uav[47] utilizationEnergyOverdrawMission 0
scalar OsgEarthNet.uav[47] utilizationEnergyOverdrawMaintenance 0
scalar OsgEarthNet.uav[47] utilizationCountMissions 1
scalar OsgEarthNet.uav[47] utilizationCountManeuversMission 13
scalar OsgEarthNet.uav[47] utilizationCountManeuversMaintenance 2
scalar OsgEarthNet.uav[47] utilizationCountChargeState 1
scalar OsgEarthNet.uav[47] utilizationCountOverdrawnAfterMission 0
scalar OsgEarthNet.uav[47] utilizationCountIdleState 2
scalar OsgEarthNet.uav[47] utilizationFail 0
scalar OsgEarthNet.uav[47] simulationTime 259200
scalar OsgEarthNet.uav[48] utilizationSecMission 28650.965251388
scalar OsgEarthNet.uav[48] utilizationSecMaintenance 16777.580786678
scalar OsgEarthNet.uav[48] utilizationSecCharge 167540
scalar OsgEarthNet.uav[48] utilizationSecIdle 46231.452961934
scalar OsgEarthNet.uav[48] utilizationEnergyMission 131625.64532471
scalar OsgEarthNet.uav[48] utilizationEnergyMaintenance 78612.158312308
scalar OsgEarthNet.uav[48] utilizationEnergyCharge 210406.14013672
scalar OsgEarthNet.uav[48] utilizationEnergyOverdrawMission 0
scalar OsgEarthNet.uav[48] utilizationEnergyOverdrawMaintenance 0
scalar OsgEarthNet.uav[48] utilizationCountMissions 46
scalar OsgEarthNet.uav[48] utilizationCountManeuversMission 467
scalar OsgEarthNet.uav[48] utilizationCountManeuversMaintenance 93
scalar OsgEarthNet.uav[48] utilizationCountChargeState 46
scalar OsgEarthNet.uav[48] utilizationCountOverdrawnAfterMission 0
scalar OsgEarthNet.uav[48] utilizationCountIdleState 47
scalar OsgEarthNet.uav[48] utilizationFail 0
scalar OsgEarthNet.uav[48] simulationTime 259200
scalar OsgEarthNet.uav[49] utilizationSecMission 366.54558454727
scalar OsgEarthNet.uav[49] utilizationSecMaintenance 628.82077470535
scalar OsgEarthNet.uav[49] utilizationSecCharge 3570
scalar OsgEarthNet.uav[49] utilizationSecIdle 254634.63264075
scalar OsgEarthNet.uav[49] utilizationEnergyMission 1635.7723388672
scalar OsgEarthNet.uav[49] utilizationEnergyMaintenance 2828.9286117554
scalar OsgEarthNet.uav[49] utilizationEnergyCharge 4464.6943359375
scalar OsgEarthNet.uav[49] utilizationEnergyOverdrawMission 0
scalar OsgEarthNet.uav[49] utilizationEnergyOverdrawMaintenance 0
scalar OsgEarthNet.uav[49] utilizationCountMissions 1
scalar OsgEarthNet.uav[49] utilizationCountManeuversMission 6
scalar OsgEarthNet.uav[49] utilizationCountManeuversMaintenance 2
scalar OsgEarthNet.uav[49] utilizationCountChargeState 1
scalar OsgEarthNet.uav[49] utilizationCountOverdrawnAfterMission 0
scalar OsgEarthNet.uav[49] utilizationCountIdleState 2
scalar OsgEarthNet.uav[49] utilizationFail 0
scalar OsgEarthNet.uav[49] simulationTime 259200
scalar OsgEarthNet.uav[50] utilizationSecMission 650.68693590098
scalar OsgEarthNet.uav[50] utilizationSecMaintenance 350.31285707965
scalar OsgEarthNet.uav[50] utilizationSecCharge 3740
scalar OsgEarthNet.uav[50] utilizationSecIdle 254458.99920702
scalar OsgEarthNet.uav[50] utilizationEnergyMission 3187.9474334717
scalar OsgEarthNet.uav[50] utilizationEnergyMaintenance 1514.846824646
scalar OsgEarthNet.uav[50] utilizationEnergyCharge 4702.7998046875
scalar OsgEarthNet.uav[50] utilizationEnergyOverdrawMission 0
scalar OsgEarthNet.uav[50] utilizationEnergyOverdrawMaintenance 0
scalar OsgEarthNet.uav[50] utilizationCountMissions 1
scalar OsgEarthNet.uav[50] utilizationCountManeuversMission 9
scalar OsgEarthNet.uav[50] utilizationCountManeuversMaintenance 2
scalar OsgEarthNet.uav[50] utilizationCountChargeState 1
scalar OsgEarthNet.uav[50] utilizationCountOverdrawnAfterMission 0
scalar OsgEarthNet.uav[50] utilizationCountIdleState 2
scalar OsgEarthNet.uav[50] utilizationFail 0
scalar OsgEarthNet.uav[50] simulationTime 259200
scalar OsgEarthNet.uav[51] utilizationSecMission 27361.24134847
scalar OsgEarthNet.uav[51] utilizationSecMaintenance 17221.166953179
scalar OsgEarthNet.uav[51] utilizationSecCharge 163820.27561214
scalar OsgEarthNet.uav[51] utilizationSecIdle 50797.315086215
scalar OsgEarthNet.uav[51] utilizationEnergyMission 126900.83437347
scalar OsgEarthNet.uav[51] utilizationEnergyMaintenance 80240.764835358
scalar OsgEarthNet.uav[51] utilizationEnergyCharge 206819.88671875
scalar OsgEarthNet.uav[51] utilizationEnergyOverdrawMission 0
scalar OsgEarthNet.uav[51] utilizationEnergyOverdrawMaintenance 0
scalar OsgEarthNet.uav[51] utilizationCountMissions 45
scalar OsgEarthNet.uav[51] utilizationCountManeuversMission 449
scalar OsgEarthNet.uav[51] utilizationCountManeuversMaintenance 90
scalar OsgEarthNet.uav[51] utilizationCountChargeState 45
scalar OsgEarthNet.uav[51] utilizationCountOverdrawnAfterMission 0
scalar OsgEarthNet.uav[51] utilizationCountIdleState 45
scalar OsgEarthNet.uav[51] utilizationFail 0
scalar OsgEarthNet.uav[51] simulationTime 259200
scalar OsgEarthNet.uav[52] utilizationSecMission 24881.587598404
scalar OsgEarthNet.uav[52] utilizationSecMaintenance 17296.73835001
scalar OsgEarthNet.uav[52] utilizationSecCharge 155960
scalar OsgEarthNet.uav[52] utilizationSecIdle 61061.673051586
scalar OsgEarthNet.uav[52] utilizationEnergyMission 114508.46016693
scalar OsgEarthNet.uav[52] utilizationEnergyMaintenance 80941.833379412
scalar OsgEarthNet.uav[52] utilizationEnergyCharge 195570.59301758
scalar OsgEarthNet.uav[52] utilizationEnergyOverdrawMission 0
scalar OsgEarthNet.uav[52] utilizationEnergyOverdrawMaintenance 0
scalar OsgEarthNet.uav[52] utilizationCountMissions 43
scalar OsgEarthNet.uav[52] utilizationCountManeuversMission 410
scalar OsgEarthNet.uav[52] utilizationCountManeuversMaintenance 87
scalar OsgEarthNet.uav[52] utilizationCountChargeState 43
scalar OsgEarthNet.uav[52] utilizationCountOverdrawnAfterMission 0
scalar OsgEarthNet.uav[52] utilizationCountIdleState 44
scalar OsgEarthNet.uav[52] utilizationFail 0
scalar OsgEarthNet.uav[52] simulationTime 259200
scalar OsgEarthNet.uav[53] utilizationSecMission 12635.498004804
scalar OsgEarthNet.uav[53] utilizationSecMaintenance 8259.3019561225
scalar OsgEarthNet.uav[53] utilizationSecCharge 76237.833180568
scalar OsgEarthNet.uav[53] utilizationSecIdle 162067.36585851
scalar OsgEarthNet.uav[53] utilizationEnergyMission 58757.51556778
scalar OsgEarthNet.uav[53] utilizationEnergyMaintenance 38855.40070343
scalar OsgEarthNet.uav[53] utilizationEnergyCharge 97173.603027344
scalar OsgEarthNet.uav[53] utilizationEnergyOverdrawMission 0
scalar OsgEarthNet.uav[53] utilizationEnergyOverdrawMaintenance 0
scalar OsgEarthNet.uav[53] utilizationCountMissions 21
scalar OsgEarthNet.uav[53] utilizationCountManeuversMission 204
scalar OsgEarthNet.uav[53] utilizationCountManeuversMaintenance 42
scalar OsgEarthNet.uav[53] utilizationCountChargeState 21
scalar OsgEarthNet.uav[53] utilizationCountOverdrawnAfterMission 0
scalar OsgEarthNet.uav[53] utilizationCountIdleState 21
scalar OsgEarthNet.uav[53] utilizationFail 0
scalar OsgEarthNet.uav[53] simulationTime 259200
scalar OsgEarthNet.uav[54] utilizationSecMission 23902.796219739
scalar OsgEarthNet.uav[54] utilizationSecMaintenance 17485.735719204
scalar OsgEarthNet.uav[54] utilizationSecCharge 151387.60439048
scalar OsgEarthNet.uav[54] utilizationSecIdle 66423.862670577
scalar OsgEarthNet.uav[54] utilizationEnergyMission 110701.03760147
scalar OsgEarthNet.uav[54] utilizationEnergyMaintenance 81655.922599792
scalar OsgEarthNet.uav[54] utilizationEnergyCharge 190805.63671875
scalar OsgEarthNet.uav[54] utilizationEnergyOverdrawMission 0
scalar OsgEarthNet.uav[54] utilizationEnergyOverdrawMaintenance 0
scalar OsgEarthNet.uav[54] utilizationCountMissions 42
scalar OsgEarthNet.uav[54] utilizationCountManeuversMission 402
scalar OsgEarthNet.uav[54] utilizationCountManeuversMaintenance 84
scalar OsgEarthNet.uav[54] utilizationCountChargeState 42
scalar OsgEarthNet.uav[54] utilizationCountOverdrawnAfterMission 0
scalar OsgEarthNet.uav[54] utilizationCountIdleState 42
scalar OsgEarthNet.uav[54] utilizationFail 0
scalar OsgEarthNet.uav[54] simulationTime 259200
scalar OsgEarthNet.uav[55] utilizationSecMission 750.20472747826
scalar OsgEarthNet.uav[55] utilizationSecMaintenance 255.5651663541
scalar OsgEarthNet.uav[55] utilizationSecCharge 3680
scalar OsgEarthNet.uav[55] utilizationSecIdle 254514.22910617
scalar OsgEarthNet.uav[55] utilizationEnergyMission 3336.4320983887
scalar OsgEarthNet.uav[55] utilizationEnergyMaintenance 1330.3369865417
scalar OsgEarthNet.uav[55] utilizationEnergyCharge 4666.7641601562
scalar OsgEarthNet.uav[55] utilizationEnergyOverdrawMission 0
scalar OsgEarthNet.uav[55] utilizationEnergyOverdrawMaintenance 0
scalar OsgEarthNet.uav[55] utilizationCountMissions 1
scalar OsgEarthNet.uav[55] utilizationCountManeuversMission 11
scalar OsgEarthNet.uav[55] utilizationCountManeuversMaintenance 2
scalar OsgEarthNet.uav[55] utilizationCountChargeState 1
scalar OsgEarthNet.uav[55] utilizationCountOverdrawnAfterMission 0
scalar OsgEarthNet.uav[55] utilizationCountIdleState 2
scalar OsgEarthNet.uav[55] utilizationFail 0
scalar OsgEarthNet.uav[55] simulationTime 259200
scalar OsgEarthNet.uav[56] utilizationSecMission 366.54558454727
scalar OsgEarthNet.uav[56] utilizationSecMaintenance 628.82077470535
scalar OsgEarthNet.uav[56] utilizationSecCharge 3630
scalar OsgEarthNet.uav[56] utilizationSecIdle 254574.63264075
scalar OsgEarthNet.uav[56] utilizationEnergyMission 1697.2259063721
scalar OsgEarthNet.uav[56] utilizationEnergyMaintenance 2857.167137146
scalar OsgEarthNet.uav[56] utilizationEnergyCharge 4554.39453125
scalar OsgEarthNet.uav[56] utilizationEnergyOverdrawMission 0
scalar OsgEarthNet.uav[56] utilizationEnergyOverdrawMaintenance 0
scalar OsgEarthNet.uav[56] utilizationCountMissions 1
scalar OsgEarthNet.uav[56] utilizationCountManeuversMission 6
scalar OsgEarthNet.uav[56] utilizationCountManeuversMaintenance 2
scalar OsgEarthNet.uav[56] utilizationCountChargeState 1
scalar OsgEarthNet.uav[56] utilizationCountOverdrawnAfterMission 0
scalar OsgEarthNet.uav[56] utilizationCountIdleState 2
scalar OsgEarthNet.uav[56] utilizationFail 0
scalar OsgEarthNet.uav[56] simulationTime 259200
scalar OsgEarthNet.uav[57] utilizationSecMission 10106.674279059
scalar OsgEarthNet.uav[57] utilizationSecMaintenance 7534.2461831117
scalar OsgEarthNet.uav[57] utilizationSecCharge 64873.653818458
scalar OsgEarthNet.uav[57] utilizationSecIdle 176685.42471937
scalar OsgEarthNet.uav[57] utilizationEnergyMission 46307.254524231
scalar OsgEarthNet.uav[57] utilizationEnergyMaintenance 35675.684329987
scalar OsgEarthNet.uav[57] utilizationEnergyCharge 81868.537109375
scalar OsgEarthNet.uav[57] utilizationEnergyOverdrawMission 0
scalar OsgEarthNet.uav[57] utilizationEnergyOverdrawMaintenance 0
scalar OsgEarthNet.uav[57] utilizationCountMissions 18
scalar OsgEarthNet.uav[57] utilizationCountManeuversMission 166
scalar OsgEarthNet.uav[57] utilizationCountManeuversMaintenance 36
scalar OsgEarthNet.uav[57] utilizationCountChargeState 18
scalar OsgEarthNet.uav[57] utilizationCountOverdrawnAfterMission 0
scalar OsgEarthNet.uav[57] utilizationCountIdleState 18
scalar OsgEarthNet.uav[57] utilizationFail 0
scalar OsgEarthNet.uav[57] simulationTime 259200
scalar OsgEarthNet.uav[58] utilizationSecMission 828.1936691689
scalar OsgEarthNet.uav[58] utilizationSecMaintenance 156.97870384097
scalar OsgEarthNet.uav[58] utilizationSecCharge 3740
scalar OsgEarthNet.uav[58] utilizationSecIdle 254474.82662699
scalar OsgEarthNet.uav[58] utilizationEnergyMission 3915.0343780517
scalar OsgEarthNet.uav[58] utilizationEnergyMaintenance 738.56917572022
scalar OsgEarthNet.uav[58] utilizationEnergyCharge 4761.0395507812
scalar OsgEarthNet.uav[58] utilizationEnergyOverdrawMission 0
scalar OsgEarthNet.uav[58] utilizationEnergyOverdrawMaintenance 0
scalar OsgEarthNet.uav[58] utilizationCountMissions 1
scalar OsgEarthNet.uav[58] utilizationCountManeuversMission 13
scalar OsgEarthNet.uav[58] utilizationCountManeuversMaintenance 2
scalar OsgEarthNet.uav[58] utilizationCountChargeState 1
scalar OsgEarthNet.uav[58] utilizationCountOverdrawnAfterMission 0
scalar OsgEarthNet.uav[58] utilizationCountIdleState 2
scalar OsgEarthNet.uav[58] utilizationFail 0
scalar OsgEarthNet.uav[58] simulationTime 259200
scalar OsgEarthNet.uav[59] utilizationSecMission 27267.099884402
scalar OsgEarthNet.uav[59] utilizationSecMaintenance 19591.114466908
scalar OsgEarthNet.uav[59] utilizationSecCharge 170659.78464869
scalar OsgEarthNet.uav[59] utilizationSecIdle 41682
scalar OsgEarthNet.uav[59] utilizationEnergyMission 126027.4303627
scalar OsgEarthNet.uav[59] utilizationEnergyMaintenance 89992.696086884
scalar OsgEarthNet.uav[59] utilizationEnergyCharge 213964.31835938
scalar OsgEarthNet.uav[59] utilizationEnergyOverdrawMission 0
scalar OsgEarthNet.uav[59] utilizationEnergyOverdrawMaintenance 0
scalar OsgEarthNet.uav[59] utilizationCountMissions 48
scalar OsgEarthNet.uav[59] utilizationCountManeuversMission 433
scalar OsgEarthNet.uav[59] utilizationCountManeuversMaintenance 95
scalar OsgEarthNet.uav[59] utilizationCountChargeState 48
scalar OsgEarthNet.uav[59] utilizationCountOverdrawnAfterMission 0
scalar OsgEarthNet.uav[59] utilizationCountIdleState 48
scalar OsgEarthNet.uav[59] utilizationFail 0
scalar OsgEarthNet.uav[59] simulationTime 259200
scalar OsgEarthNet.uav[60] utilizationSecMission 760.62515258028
scalar OsgEarthNet.uav[60] utilizationSecMaintenance 202.91610409653
scalar OsgEarthNet.uav[60] utilizationSecCharge 3460
scalar OsgEarthNet.uav[60] utilizationSecIdle 254776.45774332
scalar OsgEarthNet.uav[60] utilizationEnergyMission 3263.8931884766
scalar OsgEarthNet.uav[60] utilizationEnergyMaintenance 954.72423553467
scalar OsgEarthNet.uav[60] utilizationEnergyCharge 4218.6181640625
scalar OsgEarthNet.uav[60] utilizationEnergyOverdrawMission 0
scalar OsgEarthNet.uav[60] utilizationEnergyOverdrawMaintenance 0
scalar OsgEarthNet.uav[60] utilizationCountMissions 1
scalar OsgEarthNet.uav[60] utilizationCountManeuversMission 12
scalar OsgEarthNet.uav[60] utilizationCountManeuversMaintenance 2
scalar OsgEarthNet.uav[60] utilizationCountChargeState 1
scalar OsgEarthNet.uav[60] utilizationCountOverdrawnAfterMission 0
scalar OsgEarthNet.uav[60] utilizationCountIdleState 2
scalar OsgEarthNet.uav[60] utilizationFail 0
scalar OsgEarthNet.uav[60] simulationTime 259200
scalar OsgEarthNet.uav[61] utilizationSecMission 454.19906291044
scalar OsgEarthNet.uav[61] utilizationSecMaintenance 531.61543982806
scalar OsgEarthNet.uav[61] utilizationSecCharge 3670
scalar OsgEarthNet.uav[61] utilizationSecIdle 254544.18449726
scalar OsgEarthNet.uav[61] utilizationEnergyMission 2218.7081298828
scalar OsgEarthNet.uav[61] utilizationEnergyMaintenance 2387.7582015991
scalar OsgEarthNet.uav[61] utilizationEnergyCharge 4606.4682617188
scalar OsgEarthNet.uav[61] utilizationEnergyOverdrawMission 0
scalar OsgEarthNet.uav[61] utilizationEnergyOverdrawMaintenance 0
scalar OsgEarthNet.uav[61] utilizationCountMissions 1
scalar OsgEarthNet.uav[61] utilizationCountManeuversMission 8
scalar OsgEarthNet.uav[61] utilizationCountManeuversMaintenance 2
scalar OsgEarthNet.uav[61] utilizationCountChargeState 1
scalar OsgEarthNet.uav[61] utilizationCountOverdrawnAfterMission 0
scalar OsgEarthNet.uav[61] utilizationCountIdleState 2
scalar OsgEarthNet.uav[61] utilizationFail 0
scalar OsgEarthNet.uav[61] simulationTime 259200
scalar OsgEarthNet.uav[62] utilizationSecMission 26677.865240559
scalar OsgEarthNet.uav[62] utilizationSecMaintenance 16891.102196223
scalar OsgEarthNet.uav[62] utilizationSecCharge 159530
scalar OsgEarthNet.uav[62] utilizationSecIdle 56101.031563217
scalar OsgEarthNet.uav[62] utilizationEnergyMission 123479.22513199
scalar OsgEarthNet.uav[62] utilizationEnergyMaintenance 76631.035263062
scalar OsgEarthNet.uav[62] utilizationEnergyCharge 200111.32397461
scalar OsgEarthNet.uav[62] utilizationEnergyOverdrawMission 0
scalar OsgEarthNet.uav[62] utilizationEnergyOverdrawMaintenance 0
scalar OsgEarthNet.uav[62] utilizationCountMissions 44
scalar OsgEarthNet.uav[62] utilizationCountManeuversMission 436
scalar OsgEarthNet.uav[62] utilizationCountManeuversMaintenance 88
scalar OsgEarthNet.uav[62] utilizationCountChargeState 44
scalar OsgEarthNet.uav[62] utilizationCountOverdrawnAfterMission 0
scalar OsgEarthNet.uav[62] utilizationCountIdleState 45
scalar OsgEarthNet.uav[62] utilizationFail 0
scalar OsgEarthNet.uav[62] simulationTime 259200
scalar OsgEarthNet.uav[63] utilizationSecMission 6659.8007963607
scalar OsgEarthNet.uav[63] utilizationSecMaintenance 4863.870660412
scalar OsgEarthNet.uav[63] utilizationSecCharge 43470
scalar OsgEarthNet.uav[63] utilizationSecIdle 204206.32754323
scalar OsgEarthNet.uav[63] utilizationEnergyMission 31267.16910553
scalar OsgEarthNet.uav[63] utilizationEnergyMaintenance 23128.719490051
scalar OsgEarthNet.uav[63] utilizationEnergyCharge 54395.899902344
scalar OsgEarthNet.uav[63] utilizationEnergyOverdrawMission 0
scalar OsgEarthNet.uav[63] utilizationEnergyOverdrawMaintenance 0
scalar OsgEarthNet.uav[63] utilizationCountMissions 12
scalar OsgEarthNet.uav[63] utilizationCountManeuversMission 108
scalar OsgEarthNet.uav[63] utilizationCountManeuversMaintenance 24
scalar OsgEarthNet.uav[63] utilizationCountChargeState 12
scalar OsgEarthNet.uav[63] utilizationCountOverdrawnAfterMission 0
scalar OsgEarthNet.uav[63] utilizationCountIdleState 13
scalar OsgEarthNet.uav[63] utilizationFail 0
scalar OsgEarthNet.uav[63] simulationTime 259200
scalar OsgEarthNet.uav[64] utilizationSecMission 12817.127049405
scalar OsgEarthNet.uav[64] utilizationSecMaintenance 10373.368956586
scalar OsgEarthNet.uav[64] utilizationSecCharge 86370
scalar OsgEarthNet.uav[64] utilizationSecIdle 149639.50299401
scalar OsgEarthNet.uav[64] utilizationEnergyMission 59408.322036743
scalar OsgEarthNet.uav[64] utilizationEnergyMaintenance 48742.992805481
scalar OsgEarthNet.uav[64] utilizationEnergyCharge 107894.31640625
scalar OsgEarthNet.uav[64] utilizationEnergyOverdrawMission 0
scalar OsgEarthNet.uav[64] utilizationEnergyOverdrawMaintenance 0
scalar OsgEarthNet.uav[64] utilizationCountMissions 24
scalar OsgEarthNet.uav[64] utilizationCountManeuversMission 217
scalar OsgEarthNet.uav[64] utilizationCountManeuversMaintenance 48
scalar OsgEarthNet.uav[64] utilizationCountChargeState 24
scalar OsgEarthNet.uav[64] utilizationCountOverdrawnAfterMission 0
scalar OsgEarthNet.uav[64] utilizationCountIdleState 25
scalar OsgEarthNet.uav[64] utilizationFail 0
scalar OsgEarthNet.uav[64] simulationTime 259200
scalar OsgEarthNet.uav[65] utilizationSecMission 766.82734763767
scalar OsgEarthNet.uav[65] utilizationSecMaintenance 306.92101052153
scalar OsgEarthNet.uav[65] utilizationSecCharge 3900
scalar OsgEarthNet.uav[65] utilizationSecIdle 254226.25064184
scalar OsgEarthNet.uav[65] utilizationEnergyMission 3527.1350250244
[...]
scalar OsgEarthNet.uav[81] utilizationCountMissions 46
scalar OsgEarthNet.uav[81] utilizationCountManeuversMission 461
scalar OsgEarthNet.uav[81] utilizationCountManeuversMaintenance 92
scalar OsgEarthNet.uav[81] utilizationCountChargeState 46
scalar OsgEarthNet.uav[81] utilizationCountOverdrawnAfterMission 0
scalar OsgEarthNet.uav[81] utilizationCountIdleState 46
scalar OsgEarthNet.uav[81] utilizationFail 0
scalar OsgEarthNet.uav[81] simulationTime 259200
scalar OsgEarthNet.uav[82] utilizationSecMission 24676.607469378
scalar OsgEarthNet.uav[82] utilizationSecMaintenance 14195.129774172
scalar OsgEarthNet.uav[82] utilizationSecCharge 141078.63067578
scalar OsgEarthNet.uav[82] utilizationSecIdle 79249.631080665
scalar OsgEarthNet.uav[82] utilizationEnergyMission 114501.40650177
scalar OsgEarthNet.uav[82] utilizationEnergyMaintenance 65915.007778168
scalar OsgEarthNet.uav[82] utilizationEnergyCharge 178343.90698242
scalar OsgEarthNet.uav[82] utilizationEnergyOverdrawMission 0
scalar OsgEarthNet.uav[82] utilizationEnergyOverdrawMaintenance 0
scalar OsgEarthNet.uav[82] utilizationCountMissions 39
scalar OsgEarthNet.uav[82] utilizationCountManeuversMission 401
scalar OsgEarthNet.uav[82] utilizationCountManeuversMaintenance 78
scalar OsgEarthNet.uav[82] utilizationCountChargeState 39
scalar OsgEarthNet.uav[82] utilizationCountOverdrawnAfterMission 0
scalar OsgEarthNet.uav[82] utilizationCountIdleState 39
scalar OsgEarthNet.uav[82] utilizationFail 0
scalar OsgEarthNet.uav[82] simulationTime 259200
scalar OsgEarthNet.uav[83] utilizationSecMission 5048.4360245548
scalar OsgEarthNet.uav[83] utilizationSecMaintenance 2910.9338538946
scalar OsgEarthNet.uav[83] utilizationSecCharge 29750
scalar OsgEarthNet.uav[83] utilizationSecIdle 221490.62912155
scalar OsgEarthNet.uav[83] utilizationEnergyMission 24072.206878662
scalar OsgEarthNet.uav[83] utilizationEnergyMaintenance 13671.64050293
scalar OsgEarthNet.uav[83] utilizationEnergyCharge 37567.694824219
scalar OsgEarthNet.uav[83] utilizationEnergyOverdrawMission 0
scalar OsgEarthNet.uav[83] utilizationEnergyOverdrawMaintenance 0
scalar OsgEarthNet.uav[83] utilizationCountMissions 8
scalar OsgEarthNet.uav[83] utilizationCountManeuversMission 83
scalar OsgEarthNet.uav[83] utilizationCountManeuversMaintenance 16
scalar OsgEarthNet.uav[83] utilizationCountChargeState 8
scalar OsgEarthNet.uav[83] utilizationCountOverdrawnAfterMission 0
scalar OsgEarthNet.uav[83] utilizationCountIdleState 9
scalar OsgEarthNet.uav[83] utilizationFail 0
scalar OsgEarthNet.uav[83] simulationTime 259200
scalar OsgEarthNet.uav[84] utilizationSecMission 8914.3233121698
scalar OsgEarthNet.uav[84] utilizationSecMaintenance 6441.4048371425
scalar OsgEarthNet.uav[84] utilizationSecCharge 55500
scalar OsgEarthNet.uav[84] utilizationSecIdle 188344.27085069
scalar OsgEarthNet.uav[84] utilizationEnergyMission 40358.996055603
scalar OsgEarthNet.uav[84] utilizationEnergyMaintenance 29682.424671173
scalar OsgEarthNet.uav[84] utilizationEnergyCharge 70023.002441406
scalar OsgEarthNet.uav[84] utilizationEnergyOverdrawMission 0
scalar OsgEarthNet.uav[84] utilizationEnergyOverdrawMaintenance 0
scalar OsgEarthNet.uav[84] utilizationCountMissions 15
scalar OsgEarthNet.uav[84] utilizationCountManeuversMission 146
scalar OsgEarthNet.uav[84] utilizationCountManeuversMaintenance 30
scalar OsgEarthNet.uav[84] utilizationCountChargeState 15
scalar OsgEarthNet.uav[84] utilizationCountOverdrawnAfterMission 0
scalar OsgEarthNet.uav[84] utilizationCountIdleState 16
scalar OsgEarthNet.uav[84] utilizationFail 0
scalar OsgEarthNet.uav[84] simulationTime 259200
scalar OsgEarthNet.uav[85] utilizationSecMission 11810.107714054
scalar OsgEarthNet.uav[85] utilizationSecMaintenance 8059.9509002345
scalar OsgEarthNet.uav[85] utilizationSecCharge 73250
scalar OsgEarthNet.uav[85] utilizationSecIdle 166079.94038571
scalar OsgEarthNet.uav[85] utilizationEnergyMission 54846.695114136
scalar OsgEarthNet.uav[85] utilizationEnergyMaintenance 37506.548423767
scalar OsgEarthNet.uav[85] utilizationEnergyCharge 92216.008544922
scalar OsgEarthNet.uav[85] utilizationEnergyOverdrawMission 0
scalar OsgEarthNet.uav[85] utilizationEnergyOverdrawMaintenance 0
scalar OsgEarthNet.uav[85] utilizationCountMissions 20
scalar OsgEarthNet.uav[85] utilizationCountManeuversMission 196
scalar OsgEarthNet.uav[85] utilizationCountManeuversMaintenance 40
scalar OsgEarthNet.uav[85] utilizationCountChargeState 20
scalar OsgEarthNet.uav[85] utilizationCountOverdrawnAfterMission 0
scalar OsgEarthNet.uav[85] utilizationCountIdleState 21
scalar OsgEarthNet.uav[85] utilizationFail 0
scalar OsgEarthNet.uav[85] simulationTime 259200
scalar OsgEarthNet.uav[86] utilizationSecMission 16640.046215803
scalar OsgEarthNet.uav[86] utilizationSecMaintenance 10618.419666034
scalar OsgEarthNet.uav[86] utilizationSecCharge 99030
scalar OsgEarthNet.uav[86] utilizationSecIdle 132911.53311816
scalar OsgEarthNet.uav[86] utilizationEnergyMission 76060.269607544
scalar OsgEarthNet.uav[86] utilizationEnergyMaintenance 48537.677206521
scalar OsgEarthNet.uav[86] utilizationEnergyCharge 124986.65722656
scalar OsgEarthNet.uav[86] utilizationEnergyOverdrawMission 0
scalar OsgEarthNet.uav[86] utilizationEnergyOverdrawMaintenance 0
scalar OsgEarthNet.uav[86] utilizationCountMissions 27
scalar OsgEarthNet.uav[86] utilizationCountManeuversMission 263
scalar OsgEarthNet.uav[86] utilizationCountManeuversMaintenance 55
scalar OsgEarthNet.uav[86] utilizationCountChargeState 27
scalar OsgEarthNet.uav[86] utilizationCountOverdrawnAfterMission 0
scalar OsgEarthNet.uav[86] utilizationCountIdleState 26
scalar OsgEarthNet.uav[86] utilizationFail 0
scalar OsgEarthNet.uav[86] simulationTime 259200
scalar OsgEarthNet.uav[87] utilizationSecMission 21792.454603284
scalar OsgEarthNet.uav[87] utilizationSecMaintenance 13839.911034753
scalar OsgEarthNet.uav[87] utilizationSecCharge 128578.46792484
scalar OsgEarthNet.uav[87] utilizationSecIdle 94989.165437118
scalar OsgEarthNet.uav[87] utilizationEnergyMission 102497.42747498
scalar OsgEarthNet.uav[87] utilizationEnergyMaintenance 63795.920520782
scalar OsgEarthNet.uav[87] utilizationEnergyCharge 162255.59570312
scalar OsgEarthNet.uav[87] utilizationEnergyOverdrawMission 0
scalar OsgEarthNet.uav[87] utilizationEnergyOverdrawMaintenance 0
scalar OsgEarthNet.uav[87] utilizationCountMissions 36
scalar OsgEarthNet.uav[87] utilizationCountManeuversMission 347
scalar OsgEarthNet.uav[87] utilizationCountManeuversMaintenance 72
scalar OsgEarthNet.uav[87] utilizationCountChargeState 36
scalar OsgEarthNet.uav[87] utilizationCountOverdrawnAfterMission 0
scalar OsgEarthNet.uav[87] utilizationCountIdleState 34
scalar OsgEarthNet.uav[87] utilizationFail 0
scalar OsgEarthNet.uav[87] simulationTime 259200
scalar OsgEarthNet.uav[88] utilizationSecMission 22115.564105289
scalar OsgEarthNet.uav[88] utilizationSecMaintenance 17411.505823755
scalar OsgEarthNet.uav[88] utilizationSecCharge 142829.73071535
scalar OsgEarthNet.uav[88] utilizationSecIdle 76843.198355606
scalar OsgEarthNet.uav[88] utilizationEnergyMission 101471.96477509
scalar OsgEarthNet.uav[88] utilizationEnergyMaintenance 79783.661449432
scalar OsgEarthNet.uav[88] utilizationEnergyCharge 180606.50830078
scalar OsgEarthNet.uav[88] utilizationEnergyOverdrawMission 0
scalar OsgEarthNet.uav[88] utilizationEnergyOverdrawMaintenance 0
scalar OsgEarthNet.uav[88] utilizationCountMissions 40
scalar OsgEarthNet.uav[88] utilizationCountManeuversMission 363
scalar OsgEarthNet.uav[88] utilizationCountManeuversMaintenance 80
scalar OsgEarthNet.uav[88] utilizationCountChargeState 40
scalar OsgEarthNet.uav[88] utilizationCountOverdrawnAfterMission 0
scalar OsgEarthNet.uav[88] utilizationCountIdleState 38
scalar OsgEarthNet.uav[88] utilizationFail 0
scalar OsgEarthNet.uav[88] simulationTime 259200
scalar OsgEarthNet.uav[89] utilizationSecMission 27887.592300052
scalar OsgEarthNet.uav[89] utilizationSecMaintenance 17202.200367724
scalar OsgEarthNet.uav[89] utilizationSecCharge 162897.75745678
scalar OsgEarthNet.uav[89] utilizationSecIdle 51212.448875442
scalar OsgEarthNet.uav[89] utilizationEnergyMission 129587.43416595
scalar OsgEarthNet.uav[89] utilizationEnergyMaintenance 80066.866420746
scalar OsgEarthNet.uav[89] utilizationEnergyCharge 205862.20581055
scalar OsgEarthNet.uav[89] utilizationEnergyOverdrawMission 0
scalar OsgEarthNet.uav[89] utilizationEnergyOverdrawMaintenance 0
scalar OsgEarthNet.uav[89] utilizationCountMissions 45
scalar OsgEarthNet.uav[89] utilizationCountManeuversMission 450
scalar OsgEarthNet.uav[89] utilizationCountManeuversMaintenance 90
scalar OsgEarthNet.uav[89] utilizationCountChargeState 45
scalar OsgEarthNet.uav[89] utilizationCountOverdrawnAfterMission 0
scalar OsgEarthNet.uav[89] utilizationCountIdleState 43
scalar OsgEarthNet.uav[89] utilizationFail 0
scalar OsgEarthNet.uav[89] simulationTime 259200
scalar OsgEarthNet.uav[90] utilizationSecMission 23240.660862177
scalar OsgEarthNet.uav[90] utilizationSecMaintenance 19903.670924114
scalar OsgEarthNet.uav[90] utilizationSecCharge 158416.39643325
scalar OsgEarthNet.uav[90] utilizationSecIdle 57639.270780463
scalar OsgEarthNet.uav[90] utilizationEnergyMission 109096.96097565
scalar OsgEarthNet.uav[90] utilizationEnergyMaintenance 92187.198436737
scalar OsgEarthNet.uav[90] utilizationEnergyCharge 200242.83251953
scalar OsgEarthNet.uav[90] utilizationEnergyOverdrawMission 0
scalar OsgEarthNet.uav[90] utilizationEnergyOverdrawMaintenance 0
scalar OsgEarthNet.uav[90] utilizationCountMissions 44
scalar OsgEarthNet.uav[90] utilizationCountManeuversMission 377
scalar OsgEarthNet.uav[90] utilizationCountManeuversMaintenance 88
scalar OsgEarthNet.uav[90] utilizationCountChargeState 44
scalar OsgEarthNet.uav[90] utilizationCountOverdrawnAfterMission 0
scalar OsgEarthNet.uav[90] utilizationCountIdleState 40
scalar OsgEarthNet.uav[90] utilizationFail 0
scalar OsgEarthNet.uav[90] simulationTime 259200
scalar OsgEarthNet.uav[91] utilizationSecMission 27857.25042334
scalar OsgEarthNet.uav[91] utilizationSecMaintenance 19571.946062751
scalar OsgEarthNet.uav[91] utilizationSecCharge 172053.30887617
scalar OsgEarthNet.uav[91] utilizationSecIdle 39717.493637743
scalar OsgEarthNet.uav[91] utilizationEnergyMission 127503.43341064
scalar OsgEarthNet.uav[91] utilizationEnergyMaintenance 90615.487518311
scalar OsgEarthNet.uav[91] utilizationEnergyCharge 217705.50878906
scalar OsgEarthNet.uav[91] utilizationEnergyOverdrawMission 0
scalar OsgEarthNet.uav[91] utilizationEnergyOverdrawMaintenance 0
scalar OsgEarthNet.uav[91] utilizationCountMissions 48
scalar OsgEarthNet.uav[91] utilizationCountManeuversMission 455
scalar OsgEarthNet.uav[91] utilizationCountManeuversMaintenance 96
scalar OsgEarthNet.uav[91] utilizationCountChargeState 48
scalar OsgEarthNet.uav[91] utilizationCountOverdrawnAfterMission 0
scalar OsgEarthNet.uav[91] utilizationCountIdleState 39
scalar OsgEarthNet.uav[91] utilizationFail 0
scalar OsgEarthNet.uav[91] simulationTime 259200
scalar OsgEarthNet.uav[92] utilizationSecMission 26677.485002251
scalar OsgEarthNet.uav[92] utilizationSecMaintenance 19815.303523048
scalar OsgEarthNet.uav[92] utilizationSecCharge 170270.49163523
scalar OsgEarthNet.uav[92] utilizationSecIdle 42436.718839466
scalar OsgEarthNet.uav[92] utilizationEnergyMission 124511.48121262
scalar OsgEarthNet.uav[92] utilizationEnergyMaintenance 91847.935092926
scalar OsgEarthNet.uav[92] utilizationEnergyCharge 216021.87475586
scalar OsgEarthNet.uav[92] utilizationEnergyOverdrawMission 0
scalar OsgEarthNet.uav[92] utilizationEnergyOverdrawMaintenance 0
scalar OsgEarthNet.uav[92] utilizationCountMissions 47
scalar OsgEarthNet.uav[92] utilizationCountManeuversMission 449
scalar OsgEarthNet.uav[92] utilizationCountManeuversMaintenance 94
scalar OsgEarthNet.uav[92] utilizationCountChargeState 47
scalar OsgEarthNet.uav[92] utilizationCountOverdrawnAfterMission 0
scalar OsgEarthNet.uav[92] utilizationCountIdleState 40
scalar OsgEarthNet.uav[92] utilizationFail 0
scalar OsgEarthNet.uav[92] simulationTime 259200
scalar OsgEarthNet.uav[93] utilizationSecMission 27937.206122205
scalar OsgEarthNet.uav[93] utilizationSecMaintenance 18950.343374174
scalar OsgEarthNet.uav[93] utilizationSecCharge 172040
scalar OsgEarthNet.uav[93] utilizationSecIdle 40272.449503621
scalar OsgEarthNet.uav[93] utilizationEnergyMission 128095.58433914
scalar OsgEarthNet.uav[93] utilizationEnergyMaintenance 88691.031993866
scalar OsgEarthNet.uav[93] utilizationEnergyCharge 216792.66235352
scalar OsgEarthNet.uav[93] utilizationEnergyOverdrawMission 0
scalar OsgEarthNet.uav[93] utilizationEnergyOverdrawMaintenance 0
scalar OsgEarthNet.uav[93] utilizationCountMissions 48
scalar OsgEarthNet.uav[93] utilizationCountManeuversMission 461
scalar OsgEarthNet.uav[93] utilizationCountManeuversMaintenance 96
scalar OsgEarthNet.uav[93] utilizationCountChargeState 48
scalar OsgEarthNet.uav[93] utilizationCountOverdrawnAfterMission 0
scalar OsgEarthNet.uav[93] utilizationCountIdleState 40
scalar OsgEarthNet.uav[93] utilizationFail 0
scalar OsgEarthNet.uav[93] simulationTime 259200
scalar OsgEarthNet.uav[94] utilizationSecMission 27921.449611814
scalar OsgEarthNet.uav[94] utilizationSecMaintenance 20148.531105273
scalar OsgEarthNet.uav[94] utilizationSecCharge 173390
scalar OsgEarthNet.uav[94] utilizationSecIdle 37740.018282913
scalar OsgEarthNet.uav[94] utilizationEnergyMission 128655.42785572
scalar OsgEarthNet.uav[94] utilizationEnergyMaintenance 93248.010753632
scalar OsgEarthNet.uav[94] utilizationEnergyCharge 219071.75952148
scalar OsgEarthNet.uav[94] utilizationEnergyOverdrawMission 0
scalar OsgEarthNet.uav[94] utilizationEnergyOverdrawMaintenance 0
scalar OsgEarthNet.uav[94] utilizationCountMissions 48
scalar OsgEarthNet.uav[94] utilizationCountManeuversMission 451
scalar OsgEarthNet.uav[94] utilizationCountManeuversMaintenance 97
scalar OsgEarthNet.uav[94] utilizationCountChargeState 48
scalar OsgEarthNet.uav[94] utilizationCountOverdrawnAfterMission 0
scalar OsgEarthNet.uav[94] utilizationCountIdleState 39
scalar OsgEarthNet.uav[94] utilizationFail 0
scalar OsgEarthNet.uav[94] simulationTime 259200
scalar OsgEarthNet.uav[95] utilizationSecMission 29767.228538856
scalar OsgEarthNet.uav[95] utilizationSecMaintenance 21443.550847228
scalar OsgEarthNet.uav[95] utilizationSecCharge 185000
scalar OsgEarthNet.uav[95] utilizationSecIdle 22989.219613916
scalar OsgEarthNet.uav[95] utilizationEnergyMission 138763.32817171
scalar OsgEarthNet.uav[95] utilizationEnergyMaintenance 98528.871685028
scalar OsgEarthNet.uav[95] utilizationEnergyCharge 235378.70922852
scalar OsgEarthNet.uav[95] utilizationEnergyOverdrawMission 0
scalar OsgEarthNet.uav[95] utilizationEnergyOverdrawMaintenance 0
scalar OsgEarthNet.uav[95] utilizationCountMissions 51
scalar OsgEarthNet.uav[95] utilizationCountManeuversMission 487
scalar OsgEarthNet.uav[95] utilizationCountManeuversMaintenance 103
scalar OsgEarthNet.uav[95] utilizationCountChargeState 51
scalar OsgEarthNet.uav[95] utilizationCountOverdrawnAfterMission 0
scalar OsgEarthNet.uav[95] utilizationCountIdleState 39
scalar OsgEarthNet.uav[95] utilizationFail 0
scalar OsgEarthNet.uav[95] simulationTime 259200
scalar OsgEarthNet.uav[96] utilizationSecMission 26846.407272638
scalar OsgEarthNet.uav[96] utilizationSecMaintenance 22610.219397861
scalar OsgEarthNet.uav[96] utilizationSecCharge 179872.6072988
scalar OsgEarthNet.uav[96] utilizationSecIdle 29870.765030702
scalar OsgEarthNet.uav[96] utilizationEnergyMission 125008.66927338
scalar OsgEarthNet.uav[96] utilizationEnergyMaintenance 103454.9434166
scalar OsgEarthNet.uav[96] utilizationEnergyCharge 226321.56481934
scalar OsgEarthNet.uav[96] utilizationEnergyOverdrawMission 0
scalar OsgEarthNet.uav[96] utilizationEnergyOverdrawMaintenance 0
scalar OsgEarthNet.uav[96] utilizationCountMissions 51
scalar OsgEarthNet.uav[96] utilizationCountManeuversMission 442
scalar OsgEarthNet.uav[96] utilizationCountManeuversMaintenance 102
scalar OsgEarthNet.uav[96] utilizationCountChargeState 51
scalar OsgEarthNet.uav[96] utilizationCountOverdrawnAfterMission 0
scalar OsgEarthNet.uav[96] utilizationCountIdleState 43
scalar OsgEarthNet.uav[96] utilizationFail 0
scalar OsgEarthNet.uav[96] simulationTime 259200
scalar OsgEarthNet.uav[97] utilizationSecMission 27622.225280273
scalar OsgEarthNet.uav[97] utilizationSecMaintenance 23123.10044145
scalar OsgEarthNet.uav[97] utilizationSecCharge 181877.12818592
scalar OsgEarthNet.uav[97] utilizationSecIdle 26577.545092358
scalar OsgEarthNet.uav[97] utilizationEnergyMission 127240.63935852
scalar OsgEarthNet.uav[97] utilizationEnergyMaintenance 107347.23365021
scalar OsgEarthNet.uav[97] utilizationEnergyCharge 230163.94274902
scalar OsgEarthNet.uav[97] utilizationEnergyOverdrawMission 0
scalar OsgEarthNet.uav[97] utilizationEnergyOverdrawMaintenance 0
scalar OsgEarthNet.uav[97] utilizationCountMissions 51
scalar OsgEarthNet.uav[97] utilizationCountManeuversMission 438
scalar OsgEarthNet.uav[97] utilizationCountManeuversMaintenance 102
scalar OsgEarthNet.uav[97] utilizationCountChargeState 51
scalar OsgEarthNet.uav[97] utilizationCountOverdrawnAfterMission 0
scalar OsgEarthNet.uav[97] utilizationCountIdleState 38
scalar OsgEarthNet.uav[97] utilizationFail 0
scalar OsgEarthNet.uav[97] simulationTime 259200
scalar OsgEarthNet.uav[98] utilizationSecMission 29002.502569001
scalar OsgEarthNet.uav[98] utilizationSecMaintenance 21610.938636916
scalar OsgEarthNet.uav[98] utilizationSecCharge 183607.09944278
scalar OsgEarthNet.uav[98] utilizationSecIdle 24979.458351306
scalar OsgEarthNet.uav[98] utilizationEnergyMission 134120.44402695
scalar OsgEarthNet.uav[98] utilizationEnergyMaintenance 101240.04496384
scalar OsgEarthNet.uav[98] utilizationEnergyCharge 233780.83447266
scalar OsgEarthNet.uav[98] utilizationEnergyOverdrawMission 0
scalar OsgEarthNet.uav[98] utilizationEnergyOverdrawMaintenance 0
scalar OsgEarthNet.uav[98] utilizationCountMissions 51
scalar OsgEarthNet.uav[98] utilizationCountManeuversMission 469
scalar OsgEarthNet.uav[98] utilizationCountManeuversMaintenance 102
scalar OsgEarthNet.uav[98] utilizationCountChargeState 51
scalar OsgEarthNet.uav[98] utilizationCountOverdrawnAfterMission 0
scalar OsgEarthNet.uav[98] utilizationCountIdleState 38
scalar OsgEarthNet.uav[98] utilizationFail 0
scalar OsgEarthNet.uav[98] simulationTime 259200
scalar OsgEarthNet.uav[99] utilizationSecMission 29210.152279738
scalar OsgEarthNet.uav[99] utilizationSecMaintenance 22638.067442612
scalar OsgEarthNet.uav[99] utilizationSecCharge 186296.82578136
scalar OsgEarthNet.uav[99] utilizationSecIdle 21054.953496288
scalar OsgEarthNet.uav[99] utilizationEnergyMission 133923.24287033
scalar OsgEarthNet.uav[99] utilizationEnergyMaintenance 105626.95275879
scalar OsgEarthNet.uav[99] utilizationEnergyCharge 236630.64599609
scalar OsgEarthNet.uav[99] utilizationEnergyOverdrawMission 0
scalar OsgEarthNet.uav[99] utilizationEnergyOverdrawMaintenance 0
scalar OsgEarthNet.uav[99] utilizationCountMissions 53
scalar OsgEarthNet.uav[99] utilizationCountManeuversMission 475
scalar OsgEarthNet.uav[99] utilizationCountManeuversMaintenance 106
scalar OsgEarthNet.uav[99] utilizationCountChargeState 53
scalar OsgEarthNet.uav[99] utilizationCountOverdrawnAfterMission 0
scalar OsgEarthNet.uav[99] utilizationCountIdleState 32
scalar OsgEarthNet.uav[99] utilizationFail 0
scalar OsgEarthNet.uav[99] simulationTime 259200
scalar OsgEarthNet.cs[0] usedPower 2147162.4907093
scalar OsgEarthNet.cs[0] chargedPower 2147162.4907093
scalar OsgEarthNet.cs[0] chargedMobileNodes 440
scalar OsgEarthNet.cs[0] reservations 479
scalar OsgEarthNet.cs[1] usedPower 2889500.8229461
scalar OsgEarthNet.cs[1] chargedPower 2889500.8229461
scalar OsgEarthNet.cs[1] chargedMobileNodes 585
scalar OsgEarthNet.cs[1] reservations 628
scalar OsgEarthNet.cs[2] usedPower 4851149.0382804
scalar OsgEarthNet.cs[2] chargedPower 4851149.0382804
scalar OsgEarthNet.cs[2] chargedMobileNodes 1007
scalar OsgEarthNet.cs[2] reservations 1070

