version 2
run Szenario_Hotel_Gabelbach-37-20180710-02:43:59-48748
attr configname Szenario_Hotel_Gabelbach
attr datetime 20180710-02:43:59
attr experiment Szenario_Hotel_Gabelbach
attr inifile omnetpp.ini
attr iterationvars "$numUAVs=40, $replM=0"
attr iterationvarsf numUAVs=40,replM=0-
attr measurement "$numUAVs=40, $replM=0"
attr network OsgEarthNet
attr processid 48748
attr repetition 5
attr replication #5
attr resultdir results
attr runnumber 37
attr seedset 37
itervar numUAVs 40
itervar replM 0
param *.osgEarthScene.scene "\"Szenario_Hotel_Gabelbach.earth\""
param *.playgroundLatitude 50.6830269
param *.playgroundLongitude 10.8538055
param *.playgroundWidth 3500m
param *.playgroundHeight 3500m
param *.numCSs 3
param *.cs[0].posX 3537m
param *.cs[0].posY 965m
param *.cs[0].posZ 538m
param *.cs[1].posX 312m
param *.cs[1].posY 1262m
param *.cs[1].posZ 539m
param *.cs[2].posX 2185m
param *.cs[2].posY 3026m
param *.cs[2].posZ 777m
param *.cs[3].posX 10m
param *.cs[3].posY 2200m
param *.cs[3].posZ 560m
param *.cs[4].posX 750m
param *.cs[4].posY 200m
param *.cs[4].posZ 540m
param *.cs[5].posX 2450m
param *.cs[5].posY 180m
param *.cs[5].posZ 524m
param *.cs[6].posX 3140m
param *.cs[6].posY 1790m
param *.cs[6].posZ 606m
param *.numUAVs 40
param *.uav[*].replacementMethod 0
param *.*.timeStep 10s
param *.uav[*].commandPreviewCommandCount 20
param *.missionControl.missionFiles "\"missions\\\\Szenario_WB_Hotel_Gabelbach_Mission_Hotel.waypoints,missions\\\\Szenario_WB_Hotel_Gabelbach_Mission_Kickelhahn.waypoints,missions\\\\Szenario_WB_Hotel_Gabelbach_Mission_Ilmenau_Sportplatz.waypoints,missions\\\\Szenario_WB_Hotel_Gabelbach_Mission_Manebach_Mitte.waypoints,missions\\\\Szenario_WB_Hotel_Gabelbach_Mission_Manebach_Sued.waypoints\""
param *.missionControl.missionFiles "\"missions\\\\Szenario_WB_Hotel_Gabelbach_Mission_Hotel.waypoints,missions\\\\Szenario_WB_Hotel_Gabelbach_Mission_Kickelhahn.waypoints,missions\\\\Szenario_WB_Hotel_Gabelbach_Mission_Ilmenau_Sportplatz.waypoints,missions\\\\Szenario_WB_Hotel_Gabelbach_Mission_Manebach_Mitte.waypoints,missions\\\\Szenario_WB_Hotel_Gabelbach_Mission_Manebach_Sued.waypoints,missions\\\\Szenario_WB_Hotel_Gabelbach_Hover_HoheSchlaufe.waypoints,missions\\\\Szenario_WB_Hotel_Gabelbach_Hover_Kickelhahn.waypoints,missions\\\\Szenario_WB_Hotel_Gabelbach_Hover_Gabelbachskopf.waypoints,missions\\\\Szenario_WB_Hotel_Gabelbach_Hover_Dachskopf.waypoints\""
param *.uav[0].startX 3537m
param *.uav[0].startY 965m
param *.uav[0].startZ 539m
param *.uav[1].startX 312m
param *.uav[1].startY 1262m
param *.uav[1].startZ 540m
param *.uav[2].startX 2185m
param *.uav[2].startY 3026m
param *.uav[2].startZ 778m
param *.uav[3].startX 3537m
param *.uav[3].startY 965m
param *.uav[3].startZ 539m
param *.uav[4].startX 312m
param *.uav[4].startY 1262m
param *.uav[4].startZ 540m
param *.uav[5].startX 2185m
param *.uav[5].startY 3026m
param *.uav[5].startZ 778m
param *.uav[6].startX 3537m
param *.uav[6].startY 965m
param *.uav[6].startZ 539m
param *.uav[7].startX 312m
param *.uav[7].startY 1262m
param *.uav[7].startZ 540m
param *.uav[8].startX 2185m
param *.uav[8].startY 3026m
param *.uav[8].startZ 778m
param *.uav[9].startX 3537m
param *.uav[9].startY 965m
param *.uav[9].startZ 539m
param *.uav[10].startX 3537m
param *.uav[10].startY 965m
param *.uav[10].startZ 539m
param *.uav[11].startX 312m
param *.uav[11].startY 1262m
param *.uav[11].startZ 540m
param *.uav[12].startX 2185m
param *.uav[12].startY 3026m
param *.uav[12].startZ 778m
param *.uav[13].startX 3537m
param *.uav[13].startY 965m
param *.uav[13].startZ 539m
param *.uav[14].startX 312m
param *.uav[14].startY 1262m
param *.uav[14].startZ 540m
param *.uav[15].startX 2185m
param *.uav[15].startY 3026m
param *.uav[15].startZ 778m
param *.uav[16].startX 3537m
param *.uav[16].startY 965m
param *.uav[16].startZ 539m
param *.uav[17].startX 312m
param *.uav[17].startY 1262m
param *.uav[17].startZ 540m
param *.uav[18].startX 2185m
param *.uav[18].startY 3026m
param *.uav[18].startZ 778m
param *.uav[19].startX 3537m
param *.uav[19].startY 965m
param *.uav[19].startZ 539m
param *.uav[20].startX 3537m
param *.uav[20].startY 965m
param *.uav[20].startZ 539m
param *.uav[21].startX 312m
param *.uav[21].startY 1262m
param *.uav[21].startZ 540m
param *.uav[22].startX 2185m
param *.uav[22].startY 3026m
param *.uav[22].startZ 778m
param *.uav[23].startX 3537m
param *.uav[23].startY 965m
param *.uav[23].startZ 539m
param *.uav[24].startX 312m
param *.uav[24].startY 1262m
param *.uav[24].startZ 540m
param *.uav[25].startX 2185m
param *.uav[25].startY 3026m
param *.uav[25].startZ 778m
param *.uav[26].startX 3537m
param *.uav[26].startY 965m
param *.uav[26].startZ 539m
param *.uav[27].startX 312m
param *.uav[27].startY 1262m
param *.uav[27].startZ 540m
param *.uav[28].startX 2185m
param *.uav[28].startY 3026m
param *.uav[28].startZ 778m
param *.uav[29].startX 3537m
param *.uav[29].startY 965m
param *.uav[29].startZ 539m
param *.uav[30].startX 3537m
param *.uav[30].startY 965m
param *.uav[30].startZ 539m
param *.uav[31].startX 312m
param *.uav[31].startY 1262m
param *.uav[31].startZ 540m
param *.uav[32].startX 2185m
param *.uav[32].startY 3026m
param *.uav[32].startZ 778m
param *.uav[33].startX 3537m
param *.uav[33].startY 965m
param *.uav[33].startZ 539m
param *.uav[34].startX 312m
param *.uav[34].startY 1262m
param *.uav[34].startZ 540m
param *.uav[35].startX 2185m
param *.uav[35].startY 3026m
param *.uav[35].startZ 778m
param *.uav[36].startX 3537m
param *.uav[36].startY 965m
param *.uav[36].startZ 539m
param *.uav[37].startX 312m
param *.uav[37].startY 1262m
param *.uav[37].startZ 540m
param *.uav[38].startX 2185m
param *.uav[38].startY 3026m
param *.uav[38].startZ 778m
param *.uav[39].startX 3537m
param *.uav[39].startY 965m
param *.uav[39].startZ 539m
param *.uav[40].startX 3537m
param *.uav[40].startY 965m
param *.uav[40].startZ 539m
param *.uav[41].startX 312m
param *.uav[41].startY 1262m
param *.uav[41].startZ 540m
param *.uav[42].startX 2185m
param *.uav[42].startY 3026m
param *.uav[42].startZ 778m
param *.uav[43].startX 3537m
param *.uav[43].startY 965m
param *.uav[43].startZ 539m
param *.uav[44].startX 312m
param *.uav[44].startY 1262m
param *.uav[44].startZ 540m
param *.uav[45].startX 2185m
param *.uav[45].startY 3026m
param *.uav[45].startZ 778m
param *.uav[46].startX 3537m
param *.uav[46].startY 965m
param *.uav[46].startZ 539m
param *.uav[47].startX 312m
param *.uav[47].startY 1262m
param *.uav[47].startZ 540m
param *.uav[48].startX 2185m
param *.uav[48].startY 3026m
param *.uav[48].startZ 778m
param *.uav[49].startX 3537m
param *.uav[49].startY 965m
param *.uav[49].startZ 539m
param *.uav[50].startX 3537m
param *.uav[50].startY 965m
param *.uav[50].startZ 539m
param *.uav[51].startX 312m
param *.uav[51].startY 1262m
param *.uav[51].startZ 540m
param *.uav[52].startX 2185m
param *.uav[52].startY 3026m
param *.uav[52].startZ 778m
param *.uav[53].startX 3537m
param *.uav[53].startY 965m
param *.uav[53].startZ 539m
param *.uav[54].startX 312m
param *.uav[54].startY 1262m
param *.uav[54].startZ 540m
param *.uav[55].startX 2185m
param *.uav[55].startY 3026m
param *.uav[55].startZ 778m
param *.uav[56].startX 3537m
param *.uav[56].startY 965m
param *.uav[56].startZ 539m
param *.uav[57].startX 312m
param *.uav[57].startY 1262m
param *.uav[57].startZ 540m
param *.uav[58].startX 2185m
param *.uav[58].startY 3026m
param *.uav[58].startZ 778m
param *.uav[59].startX 3537m
param *.uav[59].startY 965m
param *.uav[59].startZ 539m
param *.uav[60].startX 3537m
param *.uav[60].startY 965m
param *.uav[60].startZ 539m
param *.uav[61].startX 312m
param *.uav[61].startY 1262m
param *.uav[61].startZ 540m
param *.uav[62].startX 2185m
param *.uav[62].startY 3026m
param *.uav[62].startZ 778m
param *.uav[63].startX 3537m
param *.uav[63].startY 965m
param *.uav[63].startZ 539m
param *.uav[64].startX 312m
param *.uav[64].startY 1262m
param *.uav[64].startZ 540m
param *.uav[65].startX 2185m
param *.uav[65].startY 3026m
param *.uav[65].startZ 778m
param *.uav[66].startX 3537m
param *.uav[66].startY 965m
param *.uav[66].startZ 539m
param *.uav[67].startX 312m
param *.uav[67].startY 1262m
param *.uav[67].startZ 540m
param *.uav[68].startX 2185m
param *.uav[68].startY 3026m
param *.uav[68].startZ 778m
param *.uav[69].startX 3537m
param *.uav[69].startY 965m
param *.uav[69].startZ 539m
param *.uav[70].startX 3537m
param *.uav[70].startY 965m
param *.uav[70].startZ 539m
param *.uav[71].startX 312m
param *.uav[71].startY 1262m
param *.uav[71].startZ 540m
param *.uav[72].startX 2185m
param *.uav[72].startY 3026m
param *.uav[72].startZ 778m
param *.uav[73].startX 3537m
param *.uav[73].startY 965m
param *.uav[73].startZ 539m
param *.uav[74].startX 312m
param *.uav[74].startY 1262m
param *.uav[74].startZ 540m
param *.uav[75].startX 2185m
param *.uav[75].startY 3026m
param *.uav[75].startZ 778m
param *.uav[76].startX 3537m
param *.uav[76].startY 965m
param *.uav[76].startZ 539m
param *.uav[77].startX 312m
param *.uav[77].startY 1262m
param *.uav[77].startZ 540m
param *.uav[78].startX 2185m
param *.uav[78].startY 3026m
param *.uav[78].startZ 778m
param *.uav[79].startX 3537m
param *.uav[79].startY 965m
param *.uav[79].startZ 539m
param *.uav[80].startX 3537m
param *.uav[80].startY 965m
param *.uav[80].startZ 539m
param *.uav[81].startX 312m
param *.uav[81].startY 1262m
param *.uav[81].startZ 540m
param *.uav[82].startX 2185m
param *.uav[82].startY 3026m
param *.uav[82].startZ 778m
param *.uav[83].startX 3537m
param *.uav[83].startY 965m
param *.uav[83].startZ 539m
param *.uav[84].startX 312m
param *.uav[84].startY 1262m
param *.uav[84].startZ 540m
param *.uav[85].startX 2185m
param *.uav[85].startY 3026m
param *.uav[85].startZ 778m
param *.uav[86].startX 3537m
param *.uav[86].startY 965m
param *.uav[86].startZ 539m
param *.uav[87].startX 312m
param *.uav[87].startY 1262m
param *.uav[87].startZ 540m
param *.uav[88].startX 2185m
param *.uav[88].startY 3026m
param *.uav[88].startZ 778m
param *.uav[89].startX 3537m
param *.uav[89].startY 965m
param *.uav[89].startZ 539m
param *.uav[90].startX 3537m
param *.uav[90].startY 965m
param *.uav[90].startZ 539m
param *.uav[91].startX 312m
param *.uav[91].startY 1262m
param *.uav[91].startZ 540m
param *.uav[92].startX 2185m
param *.uav[92].startY 3026m
param *.uav[92].startZ 778m
param *.uav[93].startX 3537m
param *.uav[93].startY 965m
param *.uav[93].startZ 539m
param *.uav[94].startX 312m
param *.uav[94].startY 1262m
param *.uav[94].startZ 540m
param *.uav[95].startX 2185m
param *.uav[95].startY 3026m
param *.uav[95].startZ 778m
param *.uav[96].startX 3537m
param *.uav[96].startY 965m
param *.uav[96].startZ 539m
param *.uav[97].startX 312m
param *.uav[97].startY 1262m
param *.uav[97].startZ 540m
param *.uav[98].startX 2185m
param *.uav[98].startY 3026m
param *.uav[98].startZ 778m
param *.uav[99].startX 3537m
param *.uav[99].startY 965m
param *.uav[99].startZ 539m
param *.osgEarthScene.scene "\"boston.earth\""
param *.playgroundLatitude 42.3558
param *.playgroundLongitude -71.0677
param *.playgroundWidth 400m
param *.playgroundHeight 200m
param *.channelController.connectionColor "\"#0000FF40\""
param *.channelController.showConnections false
param *.uav[*].modelURL "\"quadrocopter.small.obj.15.scale.0,0,90.rot\""
param *.uav[*].labelColor "\"#FF7C00CC\""
param *.uav[*].label2Color "\"#FF7C00EE\""
param *.uav[*].batteryCapacity 5200mAh
param *.uav[*].batteryRemaining uav[index].batteryCapacity
param *.uav[*].predictionQuantile 0.95
param *.uav[*].replacementMethod 2
param *.uav[*].weightedSumWeight 0.5
param *.cs[*].modelURL "\"chargingstation_v1.osgt.2.scale.0,0,0.rot.0,0,-15e-1.trans\""
param *.cs[*].spotsWaiting 999
param *.cs[*].spotsCharging 999
param *.cs[*].chargeEffectivenessPercentage 100
param *.cs[*].nonLinearPhaseStartPercentage 85
param *.cs[*].chargeCurrent 6.0A
param *.cs[*].prioritizeFastCharge true
param *.missionControl.replacementSearchMethod 0
param *.*.timeStep 9s

scalar OsgEarthNet.uav[0] utilizationSecMission 30295.756858821
scalar OsgEarthNet.uav[0] utilizationSecMaintenance 24004.666034553
scalar OsgEarthNet.uav[0] utilizationSecCharge 192564.18136707
scalar OsgEarthNet.uav[0] utilizationSecIdle 12335.39473956
scalar OsgEarthNet.uav[0] utilizationEnergyMission 140612.55780792
scalar OsgEarthNet.uav[0] utilizationEnergyMaintenance 110922.17974854
scalar OsgEarthNet.uav[0] utilizationEnergyCharge 251662.20996094
scalar OsgEarthNet.uav[0] utilizationEnergyOverdrawMission 0
scalar OsgEarthNet.uav[0] utilizationEnergyOverdrawMaintenance 0
scalar OsgEarthNet.uav[0] utilizationCountMissions 55
scalar OsgEarthNet.uav[0] utilizationCountManeuversMission 496
scalar OsgEarthNet.uav[0] utilizationCountManeuversMaintenance 110
scalar OsgEarthNet.uav[0] utilizationCountChargeState 55
scalar OsgEarthNet.uav[0] utilizationCountOverdrawnAfterMission 0
scalar OsgEarthNet.uav[0] utilizationCountIdleState 25
scalar OsgEarthNet.uav[0] utilizationFail 0
scalar OsgEarthNet.uav[0] simulationTime 259200
scalar OsgEarthNet.uav[1] utilizationSecMission 31209.275154235
scalar OsgEarthNet.uav[1] utilizationSecMaintenance 23661.250194524
scalar OsgEarthNet.uav[1] utilizationSecCharge 194453.46841134
scalar OsgEarthNet.uav[1] utilizationSecIdle 9876.0052398969
scalar OsgEarthNet.uav[1] utilizationEnergyMission 144378.76484299
scalar OsgEarthNet.uav[1] utilizationEnergyMaintenance 111252.94500351
scalar OsgEarthNet.uav[1] utilizationEnergyCharge 255100.88671875
scalar OsgEarthNet.uav[1] utilizationEnergyOverdrawMission 0
scalar OsgEarthNet.uav[1] utilizationEnergyOverdrawMaintenance 0
scalar OsgEarthNet.uav[1] utilizationCountMissions 56
scalar OsgEarthNet.uav[1] utilizationCountManeuversMission 502
scalar OsgEarthNet.uav[1] utilizationCountManeuversMaintenance 112
scalar OsgEarthNet.uav[1] utilizationCountChargeState 56
scalar OsgEarthNet.uav[1] utilizationCountOverdrawnAfterMission 0
scalar OsgEarthNet.uav[1] utilizationCountIdleState 26
scalar OsgEarthNet.uav[1] utilizationFail 0
scalar OsgEarthNet.uav[1] simulationTime 259200
scalar OsgEarthNet.uav[2] utilizationSecMission 32444.468528672
scalar OsgEarthNet.uav[2] utilizationSecMaintenance 22838.080207298
scalar OsgEarthNet.uav[2] utilizationSecCharge 195560
scalar OsgEarthNet.uav[2] utilizationSecIdle 8357.4502640309
scalar OsgEarthNet.uav[2] utilizationEnergyMission 150050.70761436
scalar OsgEarthNet.uav[2] utilizationEnergyMaintenance 106288.70528793
scalar OsgEarthNet.uav[2] utilizationEnergyCharge 255631.97558594
scalar OsgEarthNet.uav[2] utilizationEnergyOverdrawMission 0
scalar OsgEarthNet.uav[2] utilizationEnergyOverdrawMaintenance 0
scalar OsgEarthNet.uav[2] utilizationCountMissions 56
scalar OsgEarthNet.uav[2] utilizationCountManeuversMission 540
scalar OsgEarthNet.uav[2] utilizationCountManeuversMaintenance 113
scalar OsgEarthNet.uav[2] utilizationCountChargeState 56
scalar OsgEarthNet.uav[2] utilizationCountOverdrawnAfterMission 0
scalar OsgEarthNet.uav[2] utilizationCountIdleState 32
scalar OsgEarthNet.uav[2] utilizationFail 0
scalar OsgEarthNet.uav[2] simulationTime 259200
scalar OsgEarthNet.uav[3] utilizationSecMission 29659.027815079
scalar OsgEarthNet.uav[3] utilizationSecMaintenance 25701.070075358
scalar OsgEarthNet.uav[3] utilizationSecCharge 192451.82331678
scalar OsgEarthNet.uav[3] utilizationSecIdle 11388.077792781
scalar OsgEarthNet.uav[3] utilizationEnergyMission 138156.55099487
scalar OsgEarthNet.uav[3] utilizationEnergyMaintenance 118402.41160583
scalar OsgEarthNet.uav[3] utilizationEnergyCharge 251962.37316895
scalar OsgEarthNet.uav[3] utilizationEnergyOverdrawMission 0
scalar OsgEarthNet.uav[3] utilizationEnergyOverdrawMaintenance 0
scalar OsgEarthNet.uav[3] utilizationCountMissions 56
scalar OsgEarthNet.uav[3] utilizationCountManeuversMission 489
scalar OsgEarthNet.uav[3] utilizationCountManeuversMaintenance 112
scalar OsgEarthNet.uav[3] utilizationCountChargeState 56
scalar OsgEarthNet.uav[3] utilizationCountOverdrawnAfterMission 0
scalar OsgEarthNet.uav[3] utilizationCountIdleState 26
scalar OsgEarthNet.uav[3] utilizationFail 0
scalar OsgEarthNet.uav[3] simulationTime 259200
scalar OsgEarthNet.uav[4] utilizationSecMission 30770.641712363
scalar OsgEarthNet.uav[4] utilizationSecMaintenance 24291.004658842
scalar OsgEarthNet.uav[4] utilizationSecCharge 193540
scalar OsgEarthNet.uav[4] utilizationSecIdle 10598.352628794
scalar OsgEarthNet.uav[4] utilizationEnergyMission 143438.65671921
scalar OsgEarthNet.uav[4] utilizationEnergyMaintenance 112314.00967881
scalar OsgEarthNet.uav[4] utilizationEnergyCharge 254519.25
scalar OsgEarthNet.uav[4] utilizationEnergyOverdrawMission 0
scalar OsgEarthNet.uav[4] utilizationEnergyOverdrawMaintenance 0
scalar OsgEarthNet.uav[4] utilizationCountMissions 56
scalar OsgEarthNet.uav[4] utilizationCountManeuversMission 511
scalar OsgEarthNet.uav[4] utilizationCountManeuversMaintenance 113
scalar OsgEarthNet.uav[4] utilizationCountChargeState 56
scalar OsgEarthNet.uav[4] utilizationCountOverdrawnAfterMission 0
scalar OsgEarthNet.uav[4] utilizationCountIdleState 28
scalar OsgEarthNet.uav[4] utilizationFail 0
scalar OsgEarthNet.uav[4] simulationTime 259200
scalar OsgEarthNet.uav[5] utilizationSecMission 31406.657521285
scalar OsgEarthNet.uav[5] utilizationSecMaintenance 23840.166587569
scalar OsgEarthNet.uav[5] utilizationSecCharge 195490
scalar OsgEarthNet.uav[5] utilizationSecIdle 8463.1748911457
scalar OsgEarthNet.uav[5] utilizationEnergyMission 145037.44720459
scalar OsgEarthNet.uav[5] utilizationEnergyMaintenance 111178.54336166
scalar OsgEarthNet.uav[5] utilizationEnergyCharge 255788.06079102
scalar OsgEarthNet.uav[5] utilizationEnergyOverdrawMission 0
scalar OsgEarthNet.uav[5] utilizationEnergyOverdrawMaintenance 0
scalar OsgEarthNet.uav[5] utilizationCountMissions 56
scalar OsgEarthNet.uav[5] utilizationCountManeuversMission 499
scalar OsgEarthNet.uav[5] utilizationCountManeuversMaintenance 112
scalar OsgEarthNet.uav[5] utilizationCountChargeState 56
scalar OsgEarthNet.uav[5] utilizationCountOverdrawnAfterMission 0
scalar OsgEarthNet.uav[5] utilizationCountIdleState 31
scalar OsgEarthNet.uav[5] utilizationFail 0
scalar OsgEarthNet.uav[5] simulationTime 259200
scalar OsgEarthNet.uav[6] utilizationSecMission 31348.860149898
scalar OsgEarthNet.uav[6] utilizationSecMaintenance 23724.164757717
scalar OsgEarthNet.uav[6] utilizationSecCharge 190854.41690492
scalar OsgEarthNet.uav[6] utilizationSecIdle 13272.557187469
scalar OsgEarthNet.uav[6] utilizationEnergyMission 144013.23944473
scalar OsgEarthNet.uav[6] utilizationEnergyMaintenance 108875.63805008
scalar OsgEarthNet.uav[6] utilizationEnergyCharge 251820.16821289
scalar OsgEarthNet.uav[6] utilizationEnergyOverdrawMission 0
scalar OsgEarthNet.uav[6] utilizationEnergyOverdrawMaintenance 0
scalar OsgEarthNet.uav[6] utilizationCountMissions 56
scalar OsgEarthNet.uav[6] utilizationCountManeuversMission 508
scalar OsgEarthNet.uav[6] utilizationCountManeuversMaintenance 112
scalar OsgEarthNet.uav[6] utilizationCountChargeState 56
scalar OsgEarthNet.uav[6] utilizationCountOverdrawnAfterMission 0
scalar OsgEarthNet.uav[6] utilizationCountIdleState 28
scalar OsgEarthNet.uav[6] utilizationFail 0
scalar OsgEarthNet.uav[6] simulationTime 259200
scalar OsgEarthNet.uav[7] utilizationSecMission 30610.837177987
scalar OsgEarthNet.uav[7] utilizationSecMaintenance 25226.689704908
scalar OsgEarthNet.uav[7] utilizationSecCharge 193370
scalar OsgEarthNet.uav[7] utilizationSecIdle 9992.4721171053
scalar OsgEarthNet.uav[7] utilizationEnergyMission 140895.11893845
scalar OsgEarthNet.uav[7] utilizationEnergyMaintenance 115871.94082485
scalar OsgEarthNet.uav[7] utilizationEnergyCharge 252862.22851562
scalar OsgEarthNet.uav[7] utilizationEnergyOverdrawMission 0
scalar OsgEarthNet.uav[7] utilizationEnergyOverdrawMaintenance 0
scalar OsgEarthNet.uav[7] utilizationCountMissions 56
scalar OsgEarthNet.uav[7] utilizationCountManeuversMission 497
scalar OsgEarthNet.uav[7] utilizationCountManeuversMaintenance 113
scalar OsgEarthNet.uav[7] utilizationCountChargeState 56
scalar OsgEarthNet.uav[7] utilizationCountOverdrawnAfterMission 0
scalar OsgEarthNet.uav[7] utilizationCountIdleState 28
scalar OsgEarthNet.uav[7] utilizationFail 0
scalar OsgEarthNet.uav[7] simulationTime 259200
scalar OsgEarthNet.uav[8] utilizationSecMission 31214.018684924
scalar OsgEarthNet.uav[8] utilizationSecMaintenance 24581.256144083
scalar OsgEarthNet.uav[8] utilizationSecCharge 195425.2658229
scalar OsgEarthNet.uav[8] utilizationSecIdle 7979.4583480894
scalar OsgEarthNet.uav[8] utilizationEnergyMission 144031.96179962
scalar OsgEarthNet.uav[8] utilizationEnergyMaintenance 112810.6896553
scalar OsgEarthNet.uav[8] utilizationEnergyCharge 256462.50634766
scalar OsgEarthNet.uav[8] utilizationEnergyOverdrawMission 0
scalar OsgEarthNet.uav[8] utilizationEnergyOverdrawMaintenance 0
scalar OsgEarthNet.uav[8] utilizationCountMissions 57
scalar OsgEarthNet.uav[8] utilizationCountManeuversMission 509
scalar OsgEarthNet.uav[8] utilizationCountManeuversMaintenance 114
scalar OsgEarthNet.uav[8] utilizationCountChargeState 57
scalar OsgEarthNet.uav[8] utilizationCountOverdrawnAfterMission 0
scalar OsgEarthNet.uav[8] utilizationCountIdleState 24
scalar OsgEarthNet.uav[8] utilizationFail 0
scalar OsgEarthNet.uav[8] simulationTime 259200
scalar OsgEarthNet.uav[9] utilizationSecMission 31335.919311741
scalar OsgEarthNet.uav[9] utilizationSecMaintenance 24712.159468022
scalar OsgEarthNet.uav[9] utilizationSecCharge 195149.92847576
scalar OsgEarthNet.uav[9] utilizationSecIdle 8001.9917444745
scalar OsgEarthNet.uav[9] utilizationEnergyMission 144404.07519531
scalar OsgEarthNet.uav[9] utilizationEnergyMaintenance 114187.8847847
scalar OsgEarthNet.uav[9] utilizationEnergyCharge 258050.32373047
scalar OsgEarthNet.uav[9] utilizationEnergyOverdrawMission 0
scalar OsgEarthNet.uav[9] utilizationEnergyOverdrawMaintenance 0
scalar OsgEarthNet.uav[9] utilizationCountMissions 57
scalar OsgEarthNet.uav[9] utilizationCountManeuversMission 507
scalar OsgEarthNet.uav[9] utilizationCountManeuversMaintenance 114
scalar OsgEarthNet.uav[9] utilizationCountChargeState 57
scalar OsgEarthNet.uav[9] utilizationCountOverdrawnAfterMission 0
scalar OsgEarthNet.uav[9] utilizationCountIdleState 22
scalar OsgEarthNet.uav[9] utilizationFail 0
scalar OsgEarthNet.uav[9] simulationTime 259200
scalar OsgEarthNet.uav[10] utilizationSecMission 32380.370323873
scalar OsgEarthNet.uav[10] utilizationSecMaintenance 23358.214007852
scalar OsgEarthNet.uav[10] utilizationSecCharge 193338.34488108
scalar OsgEarthNet.uav[10] utilizationSecIdle 10123.069787199
scalar OsgEarthNet.uav[10] utilizationEnergyMission 148459.099823
scalar OsgEarthNet.uav[10] utilizationEnergyMaintenance 109656.23955154
scalar OsgEarthNet.uav[10] utilizationEnergyCharge 255037.58276367
scalar OsgEarthNet.uav[10] utilizationEnergyOverdrawMission 0
scalar OsgEarthNet.uav[10] utilizationEnergyOverdrawMaintenance 0
scalar OsgEarthNet.uav[10] utilizationCountMissions 57
scalar OsgEarthNet.uav[10] utilizationCountManeuversMission 519
scalar OsgEarthNet.uav[10] utilizationCountManeuversMaintenance 114
scalar OsgEarthNet.uav[10] utilizationCountChargeState 57
scalar OsgEarthNet.uav[10] utilizationCountOverdrawnAfterMission 0
scalar OsgEarthNet.uav[10] utilizationCountIdleState 22
scalar OsgEarthNet.uav[10] utilizationFail 0
scalar OsgEarthNet.uav[10] simulationTime 259200
scalar OsgEarthNet.uav[11] utilizationSecMission 30227.964602839
scalar OsgEarthNet.uav[11] utilizationSecMaintenance 24803.305040551
scalar OsgEarthNet.uav[11] utilizationSecCharge 193770.38849693
scalar OsgEarthNet.uav[11] utilizationSecIdle 10398.340859684
scalar OsgEarthNet.uav[11] utilizationEnergyMission 139922.9546814
scalar OsgEarthNet.uav[11] utilizationEnergyMaintenance 115339.95860291
scalar OsgEarthNet.uav[11] utilizationEnergyCharge 255373.7409668
scalar OsgEarthNet.uav[11] utilizationEnergyOverdrawMission 0
scalar OsgEarthNet.uav[11] utilizationEnergyOverdrawMaintenance 0
scalar OsgEarthNet.uav[11] utilizationCountMissions 56
scalar OsgEarthNet.uav[11] utilizationCountManeuversMission 496
scalar OsgEarthNet.uav[11] utilizationCountManeuversMaintenance 112
scalar OsgEarthNet.uav[11] utilizationCountChargeState 56
scalar OsgEarthNet.uav[11] utilizationCountOverdrawnAfterMission 0
scalar OsgEarthNet.uav[11] utilizationCountIdleState 21
scalar OsgEarthNet.uav[11] utilizationFail 0
scalar OsgEarthNet.uav[11] simulationTime 259200
scalar OsgEarthNet.uav[12] utilizationSecMission 30458.177574107
scalar OsgEarthNet.uav[12] utilizationSecMaintenance 25942.973263896
scalar OsgEarthNet.uav[12] utilizationSecCharge 195740
scalar OsgEarthNet.uav[12] utilizationSecIdle 7058.8481619971
scalar OsgEarthNet.uav[12] utilizationEnergyMission 141667.63755035
scalar OsgEarthNet.uav[12] utilizationEnergyMaintenance 120871.36277253
scalar OsgEarthNet.uav[12] utilizationEnergyCharge 257777.72094727
scalar OsgEarthNet.uav[12] utilizationEnergyOverdrawMission 0
scalar OsgEarthNet.uav[12] utilizationEnergyOverdrawMaintenance 0
scalar OsgEarthNet.uav[12] utilizationCountMissions 58
scalar OsgEarthNet.uav[12] utilizationCountManeuversMission 497
scalar OsgEarthNet.uav[12] utilizationCountManeuversMaintenance 116
scalar OsgEarthNet.uav[12] utilizationCountChargeState 57
scalar OsgEarthNet.uav[12] utilizationCountOverdrawnAfterMission 0
scalar OsgEarthNet.uav[12] utilizationCountIdleState 23
scalar OsgEarthNet.uav[12] utilizationFail 0
scalar OsgEarthNet.uav[12] simulationTime 259200
scalar OsgEarthNet.uav[13] utilizationSecMission 33052.606861351
scalar OsgEarthNet.uav[13] utilizationSecMaintenance 22742.781938654
scalar OsgEarthNet.uav[13] utilizationSecCharge 194593.09653905
scalar OsgEarthNet.uav[13] utilizationSecIdle 8811.5136609497
scalar OsgEarthNet.uav[13] utilizationEnergyMission 151924.38160706
scalar OsgEarthNet.uav[13] utilizationEnergyMaintenance 105625.68999481
scalar OsgEarthNet.uav[13] utilizationEnergyCharge 256514.30810547
scalar OsgEarthNet.uav[13] utilizationEnergyOverdrawMission 0
scalar OsgEarthNet.uav[13] utilizationEnergyOverdrawMaintenance 0
scalar OsgEarthNet.uav[13] utilizationCountMissions 57
scalar OsgEarthNet.uav[13] utilizationCountManeuversMission 530
scalar OsgEarthNet.uav[13] utilizationCountManeuversMaintenance 114
scalar OsgEarthNet.uav[13] utilizationCountChargeState 57
scalar OsgEarthNet.uav[13] utilizationCountOverdrawnAfterMission 0
scalar OsgEarthNet.uav[13] utilizationCountIdleState 24
scalar OsgEarthNet.uav[13] utilizationFail 0
scalar OsgEarthNet.uav[13] simulationTime 259200
scalar OsgEarthNet.uav[14] utilizationSecMission 32872.778190156
scalar OsgEarthNet.uav[14] utilizationSecMaintenance 23397.836783727
scalar OsgEarthNet.uav[14] utilizationSecCharge 194210
scalar OsgEarthNet.uav[14] utilizationSecIdle 8719.3840261171
scalar OsgEarthNet.uav[14] utilizationEnergyMission 151810.68352456
scalar OsgEarthNet.uav[14] utilizationEnergyMaintenance 107712.90044403
scalar OsgEarthNet.uav[14] utilizationEnergyCharge 255848.76708984
scalar OsgEarthNet.uav[14] utilizationEnergyOverdrawMission 0
scalar OsgEarthNet.uav[14] utilizationEnergyOverdrawMaintenance 0
scalar OsgEarthNet.uav[14] utilizationCountMissions 56
scalar OsgEarthNet.uav[14] utilizationCountManeuversMission 540
scalar OsgEarthNet.uav[14] utilizationCountManeuversMaintenance 113
scalar OsgEarthNet.uav[14] utilizationCountChargeState 56
scalar OsgEarthNet.uav[14] utilizationCountOverdrawnAfterMission 0
scalar OsgEarthNet.uav[14] utilizationCountIdleState 21
scalar OsgEarthNet.uav[14] utilizationFail 0
scalar OsgEarthNet.uav[14] simulationTime 259200
scalar OsgEarthNet.uav[15] utilizationSecMission 33529.548136669
scalar OsgEarthNet.uav[15] utilizationSecMaintenance 22462.015106855
scalar OsgEarthNet.uav[15] utilizationSecCharge 194586.43575648
scalar OsgEarthNet.uav[15] utilizationSecIdle 8622
scalar OsgEarthNet.uav[15] utilizationEnergyMission 153820.70146584
scalar OsgEarthNet.uav[15] utilizationEnergyMaintenance 106022.85609436
scalar OsgEarthNet.uav[15] utilizationEnergyCharge 256850.68652344
scalar OsgEarthNet.uav[15] utilizationEnergyOverdrawMission 0
scalar OsgEarthNet.uav[15] utilizationEnergyOverdrawMaintenance 0
scalar OsgEarthNet.uav[15] utilizationCountMissions 57
scalar OsgEarthNet.uav[15] utilizationCountManeuversMission 541
scalar OsgEarthNet.uav[15] utilizationCountManeuversMaintenance 113
scalar OsgEarthNet.uav[15] utilizationCountChargeState 57
scalar OsgEarthNet.uav[15] utilizationCountOverdrawnAfterMission 0
scalar OsgEarthNet.uav[15] utilizationCountIdleState 28
scalar OsgEarthNet.uav[15] utilizationFail 0
scalar OsgEarthNet.uav[15] simulationTime 259200
scalar OsgEarthNet.uav[16] utilizationSecMission 33140.877313675
scalar OsgEarthNet.uav[16] utilizationSecMaintenance 23213.013857376
scalar OsgEarthNet.uav[16] utilizationSecCharge 196154.10782895
scalar OsgEarthNet.uav[16] utilizationSecIdle 6692
scalar OsgEarthNet.uav[16] utilizationEnergyMission 154681.80265808
scalar OsgEarthNet.uav[16] utilizationEnergyMaintenance 108152.16953659
scalar OsgEarthNet.uav[16] utilizationEnergyCharge 260256.73706055
scalar OsgEarthNet.uav[16] utilizationEnergyOverdrawMission 0
scalar OsgEarthNet.uav[16] utilizationEnergyOverdrawMaintenance 0
scalar OsgEarthNet.uav[16] utilizationCountMissions 57
scalar OsgEarthNet.uav[16] utilizationCountManeuversMission 532
scalar OsgEarthNet.uav[16] utilizationCountManeuversMaintenance 113
scalar OsgEarthNet.uav[16] utilizationCountChargeState 57
scalar OsgEarthNet.uav[16] utilizationCountOverdrawnAfterMission 0
scalar OsgEarthNet.uav[16] utilizationCountIdleState 25
scalar OsgEarthNet.uav[16] utilizationFail 0
scalar OsgEarthNet.uav[16] simulationTime 259200
scalar OsgEarthNet.uav[17] utilizationSecMission 30400.094804803
scalar OsgEarthNet.uav[17] utilizationSecMaintenance 25714.08054563
scalar OsgEarthNet.uav[17] utilizationSecCharge 195308.50854182
scalar OsgEarthNet.uav[17] utilizationSecIdle 7777.3151077456
scalar OsgEarthNet.uav[17] utilizationEnergyMission 140580.49851227
scalar OsgEarthNet.uav[17] utilizationEnergyMaintenance 120481.96041489
scalar OsgEarthNet.uav[17] utilizationEnergyCharge 258281.08300781
scalar OsgEarthNet.uav[17] utilizationEnergyOverdrawMission 0
scalar OsgEarthNet.uav[17] utilizationEnergyOverdrawMaintenance 0
scalar OsgEarthNet.uav[17] utilizationCountMissions 58
scalar OsgEarthNet.uav[17] utilizationCountManeuversMission 511
scalar OsgEarthNet.uav[17] utilizationCountManeuversMaintenance 116
scalar OsgEarthNet.uav[17] utilizationCountChargeState 58
scalar OsgEarthNet.uav[17] utilizationCountOverdrawnAfterMission 0
scalar OsgEarthNet.uav[17] utilizationCountIdleState 19
scalar OsgEarthNet.uav[17] utilizationFail 0
scalar OsgEarthNet.uav[17] simulationTime 259200
scalar OsgEarthNet.uav[18] utilizationSecMission 34236.93209805
scalar OsgEarthNet.uav[18] utilizationSecMaintenance 21933.641554659
scalar OsgEarthNet.uav[18] utilizationSecCharge 194590
scalar OsgEarthNet.uav[18] utilizationSecIdle 8439.4253472904
scalar OsgEarthNet.uav[18] utilizationEnergyMission 157588.15561941
scalar OsgEarthNet.uav[18] utilizationEnergyMaintenance 102040.19725037
scalar OsgEarthNet.uav[18] utilizationEnergyCharge 255949.21069336
scalar OsgEarthNet.uav[18] utilizationEnergyOverdrawMission 0
scalar OsgEarthNet.uav[18] utilizationEnergyOverdrawMaintenance 0
scalar OsgEarthNet.uav[18] utilizationCountMissions 56
scalar OsgEarthNet.uav[18] utilizationCountManeuversMission 551
scalar OsgEarthNet.uav[18] utilizationCountManeuversMaintenance 113
scalar OsgEarthNet.uav[18] utilizationCountChargeState 56
scalar OsgEarthNet.uav[18] utilizationCountOverdrawnAfterMission 0
scalar OsgEarthNet.uav[18] utilizationCountIdleState 27
scalar OsgEarthNet.uav[18] utilizationFail 0
scalar OsgEarthNet.uav[18] simulationTime 259200
scalar OsgEarthNet.uav[19] utilizationSecMission 32055.986546545
scalar OsgEarthNet.uav[19] utilizationSecMaintenance 25155.265080827
scalar OsgEarthNet.uav[19] utilizationSecCharge 195745.98140729
scalar OsgEarthNet.uav[19] utilizationSecIdle 6242.765965339
scalar OsgEarthNet.uav[19] utilizationEnergyMission 147374.48119354
scalar OsgEarthNet.uav[19] utilizationEnergyMaintenance 116254.6750679
scalar OsgEarthNet.uav[19] utilizationEnergyCharge 260895.22436523
scalar OsgEarthNet.uav[19] utilizationEnergyOverdrawMission 0
scalar OsgEarthNet.uav[19] utilizationEnergyOverdrawMaintenance 0
scalar OsgEarthNet.uav[19] utilizationCountMissions 58
scalar OsgEarthNet.uav[19] utilizationCountManeuversMission 521
scalar OsgEarthNet.uav[19] utilizationCountManeuversMaintenance 116
scalar OsgEarthNet.uav[19] utilizationCountChargeState 58
scalar OsgEarthNet.uav[19] utilizationCountOverdrawnAfterMission 0
scalar OsgEarthNet.uav[19] utilizationCountIdleState 14
scalar OsgEarthNet.uav[19] utilizationFail 0
scalar OsgEarthNet.uav[19] simulationTime 259200
scalar OsgEarthNet.uav[20] utilizationSecMission 33187.650793912
scalar OsgEarthNet.uav[20] utilizationSecMaintenance 23305.891324069
scalar OsgEarthNet.uav[20] utilizationSecCharge 194852.43861229
scalar OsgEarthNet.uav[20] utilizationSecIdle 7854.0182697282
scalar OsgEarthNet.uav[20] utilizationEnergyMission 153844.88925934
scalar OsgEarthNet.uav[20] utilizationEnergyMaintenance 108368.48949432
scalar OsgEarthNet.uav[20] utilizationEnergyCharge 261043.58544922
scalar OsgEarthNet.uav[20] utilizationEnergyOverdrawMission 0
scalar OsgEarthNet.uav[20] utilizationEnergyOverdrawMaintenance 0
scalar OsgEarthNet.uav[20] utilizationCountMissions 57
scalar OsgEarthNet.uav[20] utilizationCountManeuversMission 546
scalar OsgEarthNet.uav[20] utilizationCountManeuversMaintenance 114
scalar OsgEarthNet.uav[20] utilizationCountChargeState 57
scalar OsgEarthNet.uav[20] utilizationCountOverdrawnAfterMission 0
scalar OsgEarthNet.uav[20] utilizationCountIdleState 22
scalar OsgEarthNet.uav[20] utilizationFail 0
scalar OsgEarthNet.uav[20] simulationTime 259200
scalar OsgEarthNet.uav[21] utilizationSecMission 33191.353144377
scalar OsgEarthNet.uav[21] utilizationSecMaintenance 23316.829806463
scalar OsgEarthNet.uav[21] utilizationSecCharge 193018.87330828
scalar OsgEarthNet.uav[21] utilizationSecIdle 9672.9427408812
scalar OsgEarthNet.uav[21] utilizationEnergyMission 154240.36283112
scalar OsgEarthNet.uav[21] utilizationEnergyMaintenance 105963.90206146
scalar OsgEarthNet.uav[21] utilizationEnergyCharge 256832.21508789
scalar OsgEarthNet.uav[21] utilizationEnergyOverdrawMission 0
scalar OsgEarthNet.uav[21] utilizationEnergyOverdrawMaintenance 0
scalar OsgEarthNet.uav[21] utilizationCountMissions 57
scalar OsgEarthNet.uav[21] utilizationCountManeuversMission 535
scalar OsgEarthNet.uav[21] utilizationCountManeuversMaintenance 114
scalar OsgEarthNet.uav[21] utilizationCountChargeState 57
scalar OsgEarthNet.uav[21] utilizationCountOverdrawnAfterMission 0
scalar OsgEarthNet.uav[21] utilizationCountIdleState 23
scalar OsgEarthNet.uav[21] utilizationFail 0
scalar OsgEarthNet.uav[21] simulationTime 259200
scalar OsgEarthNet.uav[22] utilizationSecMission 29218.981119772
scalar OsgEarthNet.uav[22] utilizationSecMaintenance 27040.876244425
scalar OsgEarthNet.uav[22] utilizationSecCharge 195593.79141498
scalar OsgEarthNet.uav[22] utilizationSecIdle 7346.3502208215
scalar OsgEarthNet.uav[22] utilizationEnergyMission 136517.7926178
scalar OsgEarthNet.uav[22] utilizationEnergyMaintenance 124706.51712799
scalar OsgEarthNet.uav[22] utilizationEnergyCharge 258185.05004883
scalar OsgEarthNet.uav[22] utilizationEnergyOverdrawMission 0
scalar OsgEarthNet.uav[22] utilizationEnergyOverdrawMaintenance 0
scalar OsgEarthNet.uav[22] utilizationCountMissions 58
scalar OsgEarthNet.uav[22] utilizationCountManeuversMission 483
scalar OsgEarthNet.uav[22] utilizationCountManeuversMaintenance 116
scalar OsgEarthNet.uav[22] utilizationCountChargeState 58
scalar OsgEarthNet.uav[22] utilizationCountOverdrawnAfterMission 0
scalar OsgEarthNet.uav[22] utilizationCountIdleState 22
scalar OsgEarthNet.uav[22] utilizationFail 0
scalar OsgEarthNet.uav[22] simulationTime 259200
scalar OsgEarthNet.uav[23] utilizationSecMission 31216.565584519
scalar OsgEarthNet.uav[23] utilizationSecMaintenance 24359.765662557
scalar OsgEarthNet.uav[23] utilizationSecCharge 194131.85113026
scalar OsgEarthNet.uav[23] utilizationSecIdle 9491.8166226663
scalar OsgEarthNet.uav[23] utilizationEnergyMission 144893.81888199
scalar OsgEarthNet.uav[23] utilizationEnergyMaintenance 114171.23627472
scalar OsgEarthNet.uav[23] utilizationEnergyCharge 258439.38085938
scalar OsgEarthNet.uav[23] utilizationEnergyOverdrawMission 0
scalar OsgEarthNet.uav[23] utilizationEnergyOverdrawMaintenance 0
scalar OsgEarthNet.uav[23] utilizationCountMissions 57
scalar OsgEarthNet.uav[23] utilizationCountManeuversMission 503
scalar OsgEarthNet.uav[23] utilizationCountManeuversMaintenance 114
scalar OsgEarthNet.uav[23] utilizationCountChargeState 57
scalar OsgEarthNet.uav[23] utilizationCountOverdrawnAfterMission 0
scalar OsgEarthNet.uav[23] utilizationCountIdleState 22
scalar OsgEarthNet.uav[23] utilizationFail 0
scalar OsgEarthNet.uav[23] simulationTime 259200
scalar OsgEarthNet.uav[24] utilizationSecMission 31814.611503431
scalar OsgEarthNet.uav[24] utilizationSecMaintenance 23919.677502784
scalar OsgEarthNet.uav[24] utilizationSecCharge 195494.65416829
scalar OsgEarthNet.uav[24] utilizationSecIdle 7971.0558254924
scalar OsgEarthNet.uav[24] utilizationEnergyMission 146847.03591919
scalar OsgEarthNet.uav[24] utilizationEnergyMaintenance 111578.56108475
scalar OsgEarthNet.uav[24] utilizationEnergyCharge 258123.42236328
scalar OsgEarthNet.uav[24] utilizationEnergyOverdrawMission 0
scalar OsgEarthNet.uav[24] utilizationEnergyOverdrawMaintenance 0
scalar OsgEarthNet.uav[24] utilizationCountMissions 57
scalar OsgEarthNet.uav[24] utilizationCountManeuversMission 509
scalar OsgEarthNet.uav[24] utilizationCountManeuversMaintenance 114
scalar OsgEarthNet.uav[24] utilizationCountChargeState 57
scalar OsgEarthNet.uav[24] utilizationCountOverdrawnAfterMission 0
scalar OsgEarthNet.uav[24] utilizationCountIdleState 25
scalar OsgEarthNet.uav[24] utilizationFail 0
scalar OsgEarthNet.uav[24] simulationTime 259200
scalar OsgEarthNet.uav[25] utilizationSecMission 34221.960894564
scalar OsgEarthNet.uav[25] utilizationSecMaintenance 21521.042245753
scalar OsgEarthNet.uav[25] utilizationSecCharge 195447.82074927
scalar OsgEarthNet.uav[25] utilizationSecIdle 8009.1751104107
scalar OsgEarthNet.uav[25] utilizationEnergyMission 158593.71734619
scalar OsgEarthNet.uav[25] utilizationEnergyMaintenance 99299.796401978
scalar OsgEarthNet.uav[25] utilizationEnergyCharge 256525.46630859
scalar OsgEarthNet.uav[25] utilizationEnergyOverdrawMission 0
scalar OsgEarthNet.uav[25] utilizationEnergyOverdrawMaintenance 0
scalar OsgEarthNet.uav[25] utilizationCountMissions 57
scalar OsgEarthNet.uav[25] utilizationCountManeuversMission 558
scalar OsgEarthNet.uav[25] utilizationCountManeuversMaintenance 114
scalar OsgEarthNet.uav[25] utilizationCountChargeState 57
scalar OsgEarthNet.uav[25] utilizationCountOverdrawnAfterMission 0
scalar OsgEarthNet.uav[25] utilizationCountIdleState 27
scalar OsgEarthNet.uav[25] utilizationFail 0
scalar OsgEarthNet.uav[25] simulationTime 259200
scalar OsgEarthNet.uav[26] utilizationSecMission 30680.419534235
scalar OsgEarthNet.uav[26] utilizationSecMaintenance 26937.579465765
scalar OsgEarthNet.uav[26] utilizationSecCharge 197800
scalar OsgEarthNet.uav[26] utilizationSecIdle 3782
scalar OsgEarthNet.uav[26] utilizationEnergyMission 141145.38065812
scalar OsgEarthNet.uav[26] utilizationEnergyMaintenance 123773.11797714
scalar OsgEarthNet.uav[26] utilizationEnergyCharge 262857.40942383
scalar OsgEarthNet.uav[26] utilizationEnergyOverdrawMission 0
scalar OsgEarthNet.uav[26] utilizationEnergyOverdrawMaintenance 0
scalar OsgEarthNet.uav[26] utilizationCountMissions 58
scalar OsgEarthNet.uav[26] utilizationCountManeuversMission 509
scalar OsgEarthNet.uav[26] utilizationCountManeuversMaintenance 116
scalar OsgEarthNet.uav[26] utilizationCountChargeState 58
scalar OsgEarthNet.uav[26] utilizationCountOverdrawnAfterMission 0
scalar OsgEarthNet.uav[26] utilizationCountIdleState 21
scalar OsgEarthNet.uav[26] utilizationFail 0
scalar OsgEarthNet.uav[26] simulationTime 259200
scalar OsgEarthNet.uav[27] utilizationSecMission 34370.504318652
scalar OsgEarthNet.uav[27] utilizationSecMaintenance 22151.453258531
scalar OsgEarthNet.uav[27] utilizationSecCharge 196109.58514564
scalar OsgEarthNet.uav[27] utilizationSecIdle 6568.4562771811
scalar OsgEarthNet.uav[27] utilizationEnergyMission 159988.43647003
scalar OsgEarthNet.uav[27] utilizationEnergyMaintenance 101761.19670868
scalar OsgEarthNet.uav[27] utilizationEnergyCharge 258101.43408203
scalar OsgEarthNet.uav[27] utilizationEnergyOverdrawMission 0
scalar OsgEarthNet.uav[27] utilizationEnergyOverdrawMaintenance 0
scalar OsgEarthNet.uav[27] utilizationCountMissions 57
scalar OsgEarthNet.uav[27] utilizationCountManeuversMission 576
scalar OsgEarthNet.uav[27] utilizationCountManeuversMaintenance 114
scalar OsgEarthNet.uav[27] utilizationCountChargeState 57
scalar OsgEarthNet.uav[27] utilizationCountOverdrawnAfterMission 0
scalar OsgEarthNet.uav[27] utilizationCountIdleState 22
scalar OsgEarthNet.uav[27] utilizationFail 0
scalar OsgEarthNet.uav[27] simulationTime 259200
scalar OsgEarthNet.uav[28] utilizationSecMission 30844.499888209
scalar OsgEarthNet.uav[28] utilizationSecMaintenance 27131.323829483
scalar OsgEarthNet.uav[28] utilizationSecCharge 198994.95566839
scalar OsgEarthNet.uav[28] utilizationSecIdle 2229.2196139157
scalar OsgEarthNet.uav[28] utilizationEnergyMission 141813.99372101
scalar OsgEarthNet.uav[28] utilizationEnergyMaintenance 125183.12387848
scalar OsgEarthNet.uav[28] utilizationEnergyCharge 266784.30932617
scalar OsgEarthNet.uav[28] utilizationEnergyOverdrawMission 0
scalar OsgEarthNet.uav[28] utilizationEnergyOverdrawMaintenance 0
scalar OsgEarthNet.uav[28] utilizationCountMissions 59
scalar OsgEarthNet.uav[28] utilizationCountManeuversMission 500
scalar OsgEarthNet.uav[28] utilizationCountManeuversMaintenance 118
scalar OsgEarthNet.uav[28] utilizationCountChargeState 59
scalar OsgEarthNet.uav[28] utilizationCountOverdrawnAfterMission 0
scalar OsgEarthNet.uav[28] utilizationCountIdleState 13
scalar OsgEarthNet.uav[28] utilizationFail 0
scalar OsgEarthNet.uav[28] simulationTime 259200
scalar OsgEarthNet.uav[29] utilizationSecMission 35872.331570057
scalar OsgEarthNet.uav[29] utilizationSecMaintenance 20715.527616799
scalar OsgEarthNet.uav[29] utilizationSecCharge 197140
scalar OsgEarthNet.uav[29] utilizationSecIdle 5472.1398131443
scalar OsgEarthNet.uav[29] utilizationEnergyMission 165963.07463837
scalar OsgEarthNet.uav[29] utilizationEnergyMaintenance 95441.800291971
scalar OsgEarthNet.uav[29] utilizationEnergyCharge 260665.35009766
scalar OsgEarthNet.uav[29] utilizationEnergyOverdrawMission 0
scalar OsgEarthNet.uav[29] utilizationEnergyOverdrawMaintenance 0
scalar OsgEarthNet.uav[29] utilizationCountMissions 58
scalar OsgEarthNet.uav[29] utilizationCountManeuversMission 583
scalar OsgEarthNet.uav[29] utilizationCountManeuversMaintenance 117
scalar OsgEarthNet.uav[29] utilizationCountChargeState 58
scalar OsgEarthNet.uav[29] utilizationCountOverdrawnAfterMission 0
scalar OsgEarthNet.uav[29] utilizationCountIdleState 19
scalar OsgEarthNet.uav[29] utilizationFail 0
scalar OsgEarthNet.uav[29] simulationTime 259200
scalar OsgEarthNet.uav[30] utilizationSecMission 30169.913826693
scalar OsgEarthNet.uav[30] utilizationSecMaintenance 26596.874472827
scalar OsgEarthNet.uav[30] utilizationSecCharge 194218.56627856
scalar OsgEarthNet.uav[30] utilizationSecIdle 8214.6444219229
scalar OsgEarthNet.uav[30] utilizationEnergyMission 139288.09246063
scalar OsgEarthNet.uav[30] utilizationEnergyMaintenance 123330.03627014
scalar OsgEarthNet.uav[30] utilizationEnergyCharge 260869.9987793
scalar OsgEarthNet.uav[30] utilizationEnergyOverdrawMission 0
scalar OsgEarthNet.uav[30] utilizationEnergyOverdrawMaintenance 0
scalar OsgEarthNet.uav[30] utilizationCountMissions 59
scalar OsgEarthNet.uav[30] utilizationCountManeuversMission 503
scalar OsgEarthNet.uav[30] utilizationCountManeuversMaintenance 118
scalar OsgEarthNet.uav[30] utilizationCountChargeState 59
scalar OsgEarthNet.uav[30] utilizationCountOverdrawnAfterMission 0
scalar OsgEarthNet.uav[30] utilizationCountIdleState 16
scalar OsgEarthNet.uav[30] utilizationFail 0
scalar OsgEarthNet.uav[30] simulationTime 259200
scalar OsgEarthNet.uav[31] utilizationSecMission 32652.528070201
scalar OsgEarthNet.uav[31] utilizationSecMaintenance 24789.149727894
scalar OsgEarthNet.uav[31] utilizationSecCharge 197323.70931239
scalar OsgEarthNet.uav[31] utilizationSecIdle 4434.6118895164
scalar OsgEarthNet.uav[31] utilizationEnergyMission 149359.56317139
scalar OsgEarthNet.uav[31] utilizationEnergyMaintenance 114092.03391647
scalar OsgEarthNet.uav[31] utilizationEnergyCharge 263689.2668457
scalar OsgEarthNet.uav[31] utilizationEnergyOverdrawMission 0
scalar OsgEarthNet.uav[31] utilizationEnergyOverdrawMaintenance 0
scalar OsgEarthNet.uav[31] utilizationCountMissions 59
scalar OsgEarthNet.uav[31] utilizationCountManeuversMission 541
scalar OsgEarthNet.uav[31] utilizationCountManeuversMaintenance 118
scalar OsgEarthNet.uav[31] utilizationCountChargeState 59
scalar OsgEarthNet.uav[31] utilizationCountOverdrawnAfterMission 0
scalar OsgEarthNet.uav[31] utilizationCountIdleState 19
scalar OsgEarthNet.uav[31] utilizationFail 0
scalar OsgEarthNet.uav[31] simulationTime 259200
scalar OsgEarthNet.uav[32] utilizationSecMission 33932.140058946
scalar OsgEarthNet.uav[32] utilizationSecMaintenance 23148.293584556
scalar OsgEarthNet.uav[32] utilizationSecCharge 195749.93427583
scalar OsgEarthNet.uav[32] utilizationSecIdle 6369.6310806652
scalar OsgEarthNet.uav[32] utilizationEnergyMission 155965.78894043
scalar OsgEarthNet.uav[32] utilizationEnergyMaintenance 107272.3747139
scalar OsgEarthNet.uav[32] utilizationEnergyCharge 260968.23193359
scalar OsgEarthNet.uav[32] utilizationEnergyOverdrawMission 0
scalar OsgEarthNet.uav[32] utilizationEnergyOverdrawMaintenance 0
scalar OsgEarthNet.uav[32] utilizationCountMissions 58
scalar OsgEarthNet.uav[32] utilizationCountManeuversMission 547
scalar OsgEarthNet.uav[32] utilizationCountManeuversMaintenance 116
scalar OsgEarthNet.uav[32] utilizationCountChargeState 58
scalar OsgEarthNet.uav[32] utilizationCountOverdrawnAfterMission 0
scalar OsgEarthNet.uav[32] utilizationCountIdleState 19
scalar OsgEarthNet.uav[32] utilizationFail 0
scalar OsgEarthNet.uav[32] simulationTime 259200
scalar OsgEarthNet.uav[33] utilizationSecMission 32814.096607607
scalar OsgEarthNet.uav[33] utilizationSecMaintenance 24530.377957535
scalar OsgEarthNet.uav[33] utilizationSecCharge 196137.34231932
scalar OsgEarthNet.uav[33] utilizationSecIdle 5718.1821155351
scalar OsgEarthNet.uav[33] utilizationEnergyMission 153090.52605438
scalar OsgEarthNet.uav[33] utilizationEnergyMaintenance 112130.00805283
scalar OsgEarthNet.uav[33] utilizationEnergyCharge 260644.25424194
scalar OsgEarthNet.uav[33] utilizationEnergyOverdrawMission 0
scalar OsgEarthNet.uav[33] utilizationEnergyOverdrawMaintenance 0
scalar OsgEarthNet.uav[33] utilizationCountMissions 58
scalar OsgEarthNet.uav[33] utilizationCountManeuversMission 539
scalar OsgEarthNet.uav[33] utilizationCountManeuversMaintenance 116
scalar OsgEarthNet.uav[33] utilizationCountChargeState 58
scalar OsgEarthNet.uav[33] utilizationCountOverdrawnAfterMission 0
scalar OsgEarthNet.uav[33] utilizationCountIdleState 14
scalar OsgEarthNet.uav[33] utilizationFail 0
scalar OsgEarthNet.uav[33] simulationTime 259200
scalar OsgEarthNet.uav[34] utilizationSecMission 30327.012314301
scalar OsgEarthNet.uav[34] utilizationSecMaintenance 26570.540138313
scalar OsgEarthNet.uav[34] utilizationSecCharge 196022.42824294
scalar OsgEarthNet.uav[34] utilizationSecIdle 6280.0183044438
scalar OsgEarthNet.uav[34] utilizationEnergyMission 140748.70302582
scalar OsgEarthNet.uav[34] utilizationEnergyMaintenance 124536.6981163
scalar OsgEarthNet.uav[34] utilizationEnergyCharge 261270.93908691
scalar OsgEarthNet.uav[34] utilizationEnergyOverdrawMission 0
scalar OsgEarthNet.uav[34] utilizationEnergyOverdrawMaintenance 0
scalar OsgEarthNet.uav[34] utilizationCountMissions 58
scalar OsgEarthNet.uav[34] utilizationCountManeuversMission 492
scalar OsgEarthNet.uav[34] utilizationCountManeuversMaintenance 116
scalar OsgEarthNet.uav[34] utilizationCountChargeState 58
scalar OsgEarthNet.uav[34] utilizationCountOverdrawnAfterMission 0
scalar OsgEarthNet.uav[34] utilizationCountIdleState 16
scalar OsgEarthNet.uav[34] utilizationFail 0
scalar OsgEarthNet.uav[34] simulationTime 259200
scalar OsgEarthNet.uav[35] utilizationSecMission 32031.411583516
scalar OsgEarthNet.uav[35] utilizationSecMaintenance 25587.947873855
scalar OsgEarthNet.uav[35] utilizationSecCharge 199368.63954263
scalar OsgEarthNet.uav[35] utilizationSecIdle 2212
scalar OsgEarthNet.uav[35] utilizationEnergyMission 147547.15292042
scalar OsgEarthNet.uav[35] utilizationEnergyMaintenance 118634.54266739
scalar OsgEarthNet.uav[35] utilizationEnergyCharge 265566.5234375
scalar OsgEarthNet.uav[35] utilizationEnergyOverdrawMission 0
scalar OsgEarthNet.uav[35] utilizationEnergyOverdrawMaintenance 0
scalar OsgEarthNet.uav[35] utilizationCountMissions 59
scalar OsgEarthNet.uav[35] utilizationCountManeuversMission 541
scalar OsgEarthNet.uav[35] utilizationCountManeuversMaintenance 117
scalar OsgEarthNet.uav[35] utilizationCountChargeState 59
scalar OsgEarthNet.uav[35] utilizationCountOverdrawnAfterMission 0
scalar OsgEarthNet.uav[35] utilizationCountIdleState 18
scalar OsgEarthNet.uav[35] utilizationFail 0
scalar OsgEarthNet.uav[35] simulationTime 259200
scalar OsgEarthNet.uav[36] utilizationSecMission 34021.891194127
scalar OsgEarthNet.uav[36] utilizationSecMaintenance 24162.005927091
scalar OsgEarthNet.uav[36] utilizationSecCharge 195713.95713883
scalar OsgEarthNet.uav[36] utilizationSecIdle 5302.1447399488
scalar OsgEarthNet.uav[36] utilizationEnergyMission 157593.94036102
scalar OsgEarthNet.uav[36] utilizationEnergyMaintenance 110511.251091
scalar OsgEarthNet.uav[36] utilizationEnergyCharge 263763.17626953
scalar OsgEarthNet.uav[36] utilizationEnergyOverdrawMission 0
scalar OsgEarthNet.uav[36] utilizationEnergyOverdrawMaintenance 0
scalar OsgEarthNet.uav[36] utilizationCountMissions 59
scalar OsgEarthNet.uav[36] utilizationCountManeuversMission 568
scalar OsgEarthNet.uav[36] utilizationCountManeuversMaintenance 118
scalar OsgEarthNet.uav[36] utilizationCountChargeState 59
scalar OsgEarthNet.uav[36] utilizationCountOverdrawnAfterMission 0
scalar OsgEarthNet.uav[36] utilizationCountIdleState 15
scalar OsgEarthNet.uav[36] utilizationFail 0
scalar OsgEarthNet.uav[36] simulationTime 259200
scalar OsgEarthNet.uav[37] utilizationSecMission 31471.133525422
scalar OsgEarthNet.uav[37] utilizationSecMaintenance 26450.936806332
scalar OsgEarthNet.uav[37] utilizationSecCharge 198725.92866825
scalar OsgEarthNet.uav[37] utilizationSecIdle 2552
scalar OsgEarthNet.uav[37] utilizationEnergyMission 145939.25619507
scalar OsgEarthNet.uav[37] utilizationEnergyMaintenance 122499.79070663
scalar OsgEarthNet.uav[37] utilizationEnergyCharge 268502.36425781
scalar OsgEarthNet.uav[37] utilizationEnergyOverdrawMission 0
scalar OsgEarthNet.uav[37] utilizationEnergyOverdrawMaintenance 0
scalar OsgEarthNet.uav[37] utilizationCountMissions 59
scalar OsgEarthNet.uav[37] utilizationCountManeuversMission 528
scalar OsgEarthNet.uav[37] utilizationCountManeuversMaintenance 117
scalar OsgEarthNet.uav[37] utilizationCountChargeState 59
scalar OsgEarthNet.uav[37] utilizationCountOverdrawnAfterMission 0
scalar OsgEarthNet.uav[37] utilizationCountIdleState 14
scalar OsgEarthNet.uav[37] utilizationFail 0
scalar OsgEarthNet.uav[37] simulationTime 259200
scalar OsgEarthNet.uav[38] utilizationSecMission 33278.611859258
scalar OsgEarthNet.uav[38] utilizationSecMaintenance 24643.179000377
scalar OsgEarthNet.uav[38] utilizationSecCharge 197292.75248696
scalar OsgEarthNet.uav[38] utilizationSecIdle 3985.4556534032
scalar OsgEarthNet.uav[38] utilizationEnergyMission 153066.15657043
scalar OsgEarthNet.uav[38] utilizationEnergyMaintenance 114274.51350403
scalar OsgEarthNet.uav[38] utilizationEnergyCharge 263726.63824463
scalar OsgEarthNet.uav[38] utilizationEnergyOverdrawMission 0
scalar OsgEarthNet.uav[38] utilizationEnergyOverdrawMaintenance 0
scalar OsgEarthNet.uav[38] utilizationCountMissions 59
scalar OsgEarthNet.uav[38] utilizationCountManeuversMission 537
scalar OsgEarthNet.uav[38] utilizationCountManeuversMaintenance 118
scalar OsgEarthNet.uav[38] utilizationCountChargeState 59
scalar OsgEarthNet.uav[38] utilizationCountOverdrawnAfterMission 0
scalar OsgEarthNet.uav[38] utilizationCountIdleState 12
scalar OsgEarthNet.uav[38] utilizationFail 0
scalar OsgEarthNet.uav[38] simulationTime 259200
scalar OsgEarthNet.uav[39] utilizationSecMission 33319.458271253
scalar OsgEarthNet.uav[39] utilizationSecMaintenance 23679.493799695
scalar OsgEarthNet.uav[39] utilizationSecCharge 195687.65481152
scalar OsgEarthNet.uav[39] utilizationSecIdle 6513.3921175336
scalar OsgEarthNet.uav[39] utilizationEnergyMission 154670.64584351
scalar OsgEarthNet.uav[39] utilizationEnergyMaintenance 108941.72810745
scalar OsgEarthNet.uav[39] utilizationEnergyCharge 262334.47460938
scalar OsgEarthNet.uav[39] utilizationEnergyOverdrawMission 0
scalar OsgEarthNet.uav[39] utilizationEnergyOverdrawMaintenance 0
scalar OsgEarthNet.uav[39] utilizationCountMissions 58
scalar OsgEarthNet.uav[39] utilizationCountManeuversMission 537
scalar OsgEarthNet.uav[39] utilizationCountManeuversMaintenance 116
scalar OsgEarthNet.uav[39] utilizationCountChargeState 58
scalar OsgEarthNet.uav[39] utilizationCountOverdrawnAfterMission 0
scalar OsgEarthNet.uav[39] utilizationCountIdleState 15
scalar OsgEarthNet.uav[39] utilizationFail 0
scalar OsgEarthNet.uav[39] simulationTime 259200
scalar OsgEarthNet.cs[0] usedPower 2378496.8060471
scalar OsgEarthNet.cs[0] chargedPower 2378496.8060471
scalar OsgEarthNet.cs[0] chargedMobileNodes 173
scalar OsgEarthNet.cs[0] reservations 534
scalar OsgEarthNet.cs[1] usedPower 2972398.7006352
scalar OsgEarthNet.cs[1] chargedPower 2972398.7006352
scalar OsgEarthNet.cs[1] chargedMobileNodes 198
scalar OsgEarthNet.cs[1] reservations 649
scalar OsgEarthNet.cs[2] usedPower 4994946.7685469
scalar OsgEarthNet.cs[2] chargedPower 4994946.7685469
scalar OsgEarthNet.cs[2] chargedMobileNodes 465
scalar OsgEarthNet.cs[2] reservations 1109

