version 2
run Szenario_Hotel_Gabelbach-112-20180710-04:57:47-17820
attr configname Szenario_Hotel_Gabelbach
attr datetime 20180710-04:57:47
attr experiment Szenario_Hotel_Gabelbach
attr inifile omnetpp.ini
attr iterationvars "$numUAVs=90, $replM=0"
attr iterationvarsf numUAVs=90,replM=0-
attr measurement "$numUAVs=90, $replM=0"
attr network OsgEarthNet
attr processid 17820
attr repetition 0
attr replication #0
attr resultdir results
attr runnumber 112
attr seedset 112
itervar numUAVs 90
itervar replM 0
param *.osgEarthScene.scene "\"Szenario_Hotel_Gabelbach.earth\""
param *.playgroundLatitude 50.6830269
param *.playgroundLongitude 10.8538055
param *.playgroundWidth 3500m
param *.playgroundHeight 3500m
param *.numCSs 3
param *.cs[0].posX 3537m
param *.cs[0].posY 965m
param *.cs[0].posZ 538m
param *.cs[1].posX 312m
param *.cs[1].posY 1262m
param *.cs[1].posZ 539m
param *.cs[2].posX 2185m
param *.cs[2].posY 3026m
param *.cs[2].posZ 777m
param *.cs[3].posX 10m
param *.cs[3].posY 2200m
param *.cs[3].posZ 560m
param *.cs[4].posX 750m
param *.cs[4].posY 200m
param *.cs[4].posZ 540m
param *.cs[5].posX 2450m
param *.cs[5].posY 180m
param *.cs[5].posZ 524m
param *.cs[6].posX 3140m
param *.cs[6].posY 1790m
param *.cs[6].posZ 606m
param *.numUAVs 90
param *.uav[*].replacementMethod 0
param *.*.timeStep 10s
param *.uav[*].commandPreviewCommandCount 20
param *.missionControl.missionFiles "\"missions\\\\Szenario_WB_Hotel_Gabelbach_Mission_Hotel.waypoints,missions\\\\Szenario_WB_Hotel_Gabelbach_Mission_Kickelhahn.waypoints,missions\\\\Szenario_WB_Hotel_Gabelbach_Mission_Ilmenau_Sportplatz.waypoints,missions\\\\Szenario_WB_Hotel_Gabelbach_Mission_Manebach_Mitte.waypoints,missions\\\\Szenario_WB_Hotel_Gabelbach_Mission_Manebach_Sued.waypoints\""
param *.missionControl.missionFiles "\"missions\\\\Szenario_WB_Hotel_Gabelbach_Mission_Hotel.waypoints,missions\\\\Szenario_WB_Hotel_Gabelbach_Mission_Kickelhahn.waypoints,missions\\\\Szenario_WB_Hotel_Gabelbach_Mission_Ilmenau_Sportplatz.waypoints,missions\\\\Szenario_WB_Hotel_Gabelbach_Mission_Manebach_Mitte.waypoints,missions\\\\Szenario_WB_Hotel_Gabelbach_Mission_Manebach_Sued.waypoints,missions\\\\Szenario_WB_Hotel_Gabelbach_Hover_HoheSchlaufe.waypoints,missions\\\\Szenario_WB_Hotel_Gabelbach_Hover_Kickelhahn.waypoints,missions\\\\Szenario_WB_Hotel_Gabelbach_Hover_Gabelbachskopf.waypoints,missions\\\\Szenario_WB_Hotel_Gabelbach_Hover_Dachskopf.waypoints\""
param *.uav[0].startX 3537m
param *.uav[0].startY 965m
param *.uav[0].startZ 539m
param *.uav[1].startX 312m
param *.uav[1].startY 1262m
param *.uav[1].startZ 540m
param *.uav[2].startX 2185m
param *.uav[2].startY 3026m
param *.uav[2].startZ 778m
param *.uav[3].startX 3537m
param *.uav[3].startY 965m
param *.uav[3].startZ 539m
param *.uav[4].startX 312m
param *.uav[4].startY 1262m
param *.uav[4].startZ 540m
param *.uav[5].startX 2185m
param *.uav[5].startY 3026m
param *.uav[5].startZ 778m
param *.uav[6].startX 3537m
param *.uav[6].startY 965m
param *.uav[6].startZ 539m
param *.uav[7].startX 312m
param *.uav[7].startY 1262m
param *.uav[7].startZ 540m
param *.uav[8].startX 2185m
param *.uav[8].startY 3026m
param *.uav[8].startZ 778m
param *.uav[9].startX 3537m
param *.uav[9].startY 965m
param *.uav[9].startZ 539m
param *.uav[10].startX 3537m
param *.uav[10].startY 965m
param *.uav[10].startZ 539m
param *.uav[11].startX 312m
param *.uav[11].startY 1262m
param *.uav[11].startZ 540m
param *.uav[12].startX 2185m
param *.uav[12].startY 3026m
param *.uav[12].startZ 778m
param *.uav[13].startX 3537m
param *.uav[13].startY 965m
param *.uav[13].startZ 539m
param *.uav[14].startX 312m
param *.uav[14].startY 1262m
param *.uav[14].startZ 540m
param *.uav[15].startX 2185m
param *.uav[15].startY 3026m
param *.uav[15].startZ 778m
param *.uav[16].startX 3537m
param *.uav[16].startY 965m
param *.uav[16].startZ 539m
param *.uav[17].startX 312m
param *.uav[17].startY 1262m
param *.uav[17].startZ 540m
param *.uav[18].startX 2185m
param *.uav[18].startY 3026m
param *.uav[18].startZ 778m
param *.uav[19].startX 3537m
param *.uav[19].startY 965m
param *.uav[19].startZ 539m
param *.uav[20].startX 3537m
param *.uav[20].startY 965m
param *.uav[20].startZ 539m
param *.uav[21].startX 312m
param *.uav[21].startY 1262m
param *.uav[21].startZ 540m
param *.uav[22].startX 2185m
param *.uav[22].startY 3026m
param *.uav[22].startZ 778m
param *.uav[23].startX 3537m
param *.uav[23].startY 965m
param *.uav[23].startZ 539m
param *.uav[24].startX 312m
param *.uav[24].startY 1262m
param *.uav[24].startZ 540m
param *.uav[25].startX 2185m
param *.uav[25].startY 3026m
param *.uav[25].startZ 778m
param *.uav[26].startX 3537m
param *.uav[26].startY 965m
param *.uav[26].startZ 539m
param *.uav[27].startX 312m
param *.uav[27].startY 1262m
param *.uav[27].startZ 540m
param *.uav[28].startX 2185m
param *.uav[28].startY 3026m
param *.uav[28].startZ 778m
param *.uav[29].startX 3537m
param *.uav[29].startY 965m
param *.uav[29].startZ 539m
param *.uav[30].startX 3537m
param *.uav[30].startY 965m
param *.uav[30].startZ 539m
param *.uav[31].startX 312m
param *.uav[31].startY 1262m
param *.uav[31].startZ 540m
param *.uav[32].startX 2185m
param *.uav[32].startY 3026m
param *.uav[32].startZ 778m
param *.uav[33].startX 3537m
param *.uav[33].startY 965m
param *.uav[33].startZ 539m
param *.uav[34].startX 312m
param *.uav[34].startY 1262m
param *.uav[34].startZ 540m
param *.uav[35].startX 2185m
param *.uav[35].startY 3026m
param *.uav[35].startZ 778m
param *.uav[36].startX 3537m
param *.uav[36].startY 965m
param *.uav[36].startZ 539m
param *.uav[37].startX 312m
param *.uav[37].startY 1262m
param *.uav[37].startZ 540m
param *.uav[38].startX 2185m
param *.uav[38].startY 3026m
param *.uav[38].startZ 778m
param *.uav[39].startX 3537m
param *.uav[39].startY 965m
param *.uav[39].startZ 539m
param *.uav[40].startX 3537m
param *.uav[40].startY 965m
param *.uav[40].startZ 539m
param *.uav[41].startX 312m
param *.uav[41].startY 1262m
param *.uav[41].startZ 540m
param *.uav[42].startX 2185m
param *.uav[42].startY 3026m
param *.uav[42].startZ 778m
param *.uav[43].startX 3537m
param *.uav[43].startY 965m
param *.uav[43].startZ 539m
param *.uav[44].startX 312m
param *.uav[44].startY 1262m
param *.uav[44].startZ 540m
param *.uav[45].startX 2185m
param *.uav[45].startY 3026m
param *.uav[45].startZ 778m
param *.uav[46].startX 3537m
param *.uav[46].startY 965m
param *.uav[46].startZ 539m
param *.uav[47].startX 312m
param *.uav[47].startY 1262m
param *.uav[47].startZ 540m
param *.uav[48].startX 2185m
param *.uav[48].startY 3026m
param *.uav[48].startZ 778m
param *.uav[49].startX 3537m
param *.uav[49].startY 965m
param *.uav[49].startZ 539m
param *.uav[50].startX 3537m
param *.uav[50].startY 965m
param *.uav[50].startZ 539m
param *.uav[51].startX 312m
param *.uav[51].startY 1262m
param *.uav[51].startZ 540m
param *.uav[52].startX 2185m
param *.uav[52].startY 3026m
param *.uav[52].startZ 778m
param *.uav[53].startX 3537m
param *.uav[53].startY 965m
param *.uav[53].startZ 539m
param *.uav[54].startX 312m
param *.uav[54].startY 1262m
param *.uav[54].startZ 540m
param *.uav[55].startX 2185m
param *.uav[55].startY 3026m
param *.uav[55].startZ 778m
param *.uav[56].startX 3537m
param *.uav[56].startY 965m
param *.uav[56].startZ 539m
param *.uav[57].startX 312m
param *.uav[57].startY 1262m
param *.uav[57].startZ 540m
param *.uav[58].startX 2185m
param *.uav[58].startY 3026m
param *.uav[58].startZ 778m
param *.uav[59].startX 3537m
param *.uav[59].startY 965m
param *.uav[59].startZ 539m
param *.uav[60].startX 3537m
param *.uav[60].startY 965m
param *.uav[60].startZ 539m
param *.uav[61].startX 312m
param *.uav[61].startY 1262m
param *.uav[61].startZ 540m
param *.uav[62].startX 2185m
param *.uav[62].startY 3026m
param *.uav[62].startZ 778m
param *.uav[63].startX 3537m
param *.uav[63].startY 965m
param *.uav[63].startZ 539m
param *.uav[64].startX 312m
param *.uav[64].startY 1262m
param *.uav[64].startZ 540m
param *.uav[65].startX 2185m
param *.uav[65].startY 3026m
param *.uav[65].startZ 778m
param *.uav[66].startX 3537m
param *.uav[66].startY 965m
param *.uav[66].startZ 539m
param *.uav[67].startX 312m
param *.uav[67].startY 1262m
param *.uav[67].startZ 540m
param *.uav[68].startX 2185m
param *.uav[68].startY 3026m
param *.uav[68].startZ 778m
param *.uav[69].startX 3537m
param *.uav[69].startY 965m
param *.uav[69].startZ 539m
param *.uav[70].startX 3537m
param *.uav[70].startY 965m
param *.uav[70].startZ 539m
param *.uav[71].startX 312m
param *.uav[71].startY 1262m
param *.uav[71].startZ 540m
param *.uav[72].startX 2185m
param *.uav[72].startY 3026m
param *.uav[72].startZ 778m
param *.uav[73].startX 3537m
param *.uav[73].startY 965m
param *.uav[73].startZ 539m
param *.uav[74].startX 312m
param *.uav[74].startY 1262m
param *.uav[74].startZ 540m
param *.uav[75].startX 2185m
param *.uav[75].startY 3026m
param *.uav[75].startZ 778m
param *.uav[76].startX 3537m
param *.uav[76].startY 965m
param *.uav[76].startZ 539m
param *.uav[77].startX 312m
param *.uav[77].startY 1262m
param *.uav[77].startZ 540m
param *.uav[78].startX 2185m
param *.uav[78].startY 3026m
param *.uav[78].startZ 778m
param *.uav[79].startX 3537m
param *.uav[79].startY 965m
param *.uav[79].startZ 539m
param *.uav[80].startX 3537m
param *.uav[80].startY 965m
param *.uav[80].startZ 539m
param *.uav[81].startX 312m
param *.uav[81].startY 1262m
param *.uav[81].startZ 540m
param *.uav[82].startX 2185m
param *.uav[82].startY 3026m
param *.uav[82].startZ 778m
param *.uav[83].startX 3537m
param *.uav[83].startY 965m
param *.uav[83].startZ 539m
param *.uav[84].startX 312m
param *.uav[84].startY 1262m
param *.uav[84].startZ 540m
param *.uav[85].startX 2185m
param *.uav[85].startY 3026m
param *.uav[85].startZ 778m
param *.uav[86].startX 3537m
param *.uav[86].startY 965m
param *.uav[86].startZ 539m
param *.uav[87].startX 312m
param *.uav[87].startY 1262m
param *.uav[87].startZ 540m
param *.uav[88].startX 2185m
param *.uav[88].startY 3026m
param *.uav[88].startZ 778m
param *.uav[89].startX 3537m
param *.uav[89].startY 965m
param *.uav[89].startZ 539m
param *.uav[90].startX 3537m
param *.uav[90].startY 965m
param *.uav[90].startZ 539m
param *.uav[91].startX 312m
param *.uav[91].startY 1262m
param *.uav[91].startZ 540m
param *.uav[92].startX 2185m
param *.uav[92].startY 3026m
param *.uav[92].startZ 778m
param *.uav[93].startX 3537m
param *.uav[93].startY 965m
param *.uav[93].startZ 539m
param *.uav[94].startX 312m
param *.uav[94].startY 1262m
param *.uav[94].startZ 540m
param *.uav[95].startX 2185m
param *.uav[95].startY 3026m
param *.uav[95].startZ 778m
param *.uav[96].startX 3537m
param *.uav[96].startY 965m
param *.uav[96].startZ 539m
param *.uav[97].startX 312m
param *.uav[97].startY 1262m
param *.uav[97].startZ 540m
param *.uav[98].startX 2185m
param *.uav[98].startY 3026m
param *.uav[98].startZ 778m
param *.uav[99].startX 3537m
param *.uav[99].startY 965m
param *.uav[99].startZ 539m
param *.osgEarthScene.scene "\"boston.earth\""
param *.playgroundLatitude 42.3558
param *.playgroundLongitude -71.0677
param *.playgroundWidth 400m
param *.playgroundHeight 200m
param *.channelController.connectionColor "\"#0000FF40\""
param *.channelController.showConnections false
param *.uav[*].modelURL "\"quadrocopter.small.obj.15.scale.0,0,90.rot\""
param *.uav[*].labelColor "\"#FF7C00CC\""
param *.uav[*].label2Color "\"#FF7C00EE\""
param *.uav[*].batteryCapacity 5200mAh
param *.uav[*].batteryRemaining uav[index].batteryCapacity
param *.uav[*].predictionQuantile 0.95
param *.uav[*].replacementMethod 2
param *.uav[*].weightedSumWeight 0.5
param *.cs[*].modelURL "\"chargingstation_v1.osgt.2.scale.0,0,0.rot.0,0,-15e-1.trans\""
param *.cs[*].spotsWaiting 999
param *.cs[*].spotsCharging 999
param *.cs[*].chargeEffectivenessPercentage 100
param *.cs[*].nonLinearPhaseStartPercentage 85
param *.cs[*].chargeCurrent 6.0A
param *.cs[*].prioritizeFastCharge true
param *.missionControl.replacementSearchMethod 0
param *.*.timeStep 9s

scalar OsgEarthNet.uav[0] utilizationSecMission 583.81443570057
scalar OsgEarthNet.uav[0] utilizationSecMaintenance 468.93217367926
scalar OsgEarthNet.uav[0] utilizationSecCharge 3840
scalar OsgEarthNet.uav[0] utilizationSecIdle 254307.25239062
scalar OsgEarthNet.uav[0] utilizationEnergyMission 2622.2115936279
scalar OsgEarthNet.uav[0] utilizationEnergyMaintenance 2238.0287132263
scalar OsgEarthNet.uav[0] utilizationEnergyCharge 4897.462890625
scalar OsgEarthNet.uav[0] utilizationEnergyOverdrawMission 0
scalar OsgEarthNet.uav[0] utilizationEnergyOverdrawMaintenance 0
scalar OsgEarthNet.uav[0] utilizationCountMissions 1
scalar OsgEarthNet.uav[0] utilizationCountManeuversMission 9
scalar OsgEarthNet.uav[0] utilizationCountManeuversMaintenance 2
scalar OsgEarthNet.uav[0] utilizationCountChargeState 1
scalar OsgEarthNet.uav[0] utilizationCountOverdrawnAfterMission 0
scalar OsgEarthNet.uav[0] utilizationCountIdleState 2
scalar OsgEarthNet.uav[0] utilizationFail 0
scalar OsgEarthNet.uav[0] simulationTime 259200
scalar OsgEarthNet.uav[1] utilizationSecMission 20343.145015108
scalar OsgEarthNet.uav[1] utilizationSecMaintenance 14558.889865474
scalar OsgEarthNet.uav[1] utilizationSecCharge 125591.94540568
scalar OsgEarthNet.uav[1] utilizationSecIdle 98706.018713743
scalar OsgEarthNet.uav[1] utilizationEnergyMission 93410.27999115
scalar OsgEarthNet.uav[1] utilizationEnergyMaintenance 67235.702571869
scalar OsgEarthNet.uav[1] utilizationEnergyCharge 158515.34643555
scalar OsgEarthNet.uav[1] utilizationEnergyOverdrawMission 0
scalar OsgEarthNet.uav[1] utilizationEnergyOverdrawMaintenance 0
scalar OsgEarthNet.uav[1] utilizationCountMissions 35
scalar OsgEarthNet.uav[1] utilizationCountManeuversMission 334
scalar OsgEarthNet.uav[1] utilizationCountManeuversMaintenance 70
scalar OsgEarthNet.uav[1] utilizationCountChargeState 35
scalar OsgEarthNet.uav[1] utilizationCountOverdrawnAfterMission 0
scalar OsgEarthNet.uav[1] utilizationCountIdleState 35
scalar OsgEarthNet.uav[1] utilizationFail 0
scalar OsgEarthNet.uav[1] simulationTime 259200
scalar OsgEarthNet.uav[2] utilizationSecMission 828.1936691689
scalar OsgEarthNet.uav[2] utilizationSecMaintenance 156.97870384097
scalar OsgEarthNet.uav[2] utilizationSecCharge 3760
scalar OsgEarthNet.uav[2] utilizationSecIdle 254454.82662699
scalar OsgEarthNet.uav[2] utilizationEnergyMission 3665.3662567139
scalar OsgEarthNet.uav[2] utilizationEnergyMaintenance 725.12731170655
scalar OsgEarthNet.uav[2] utilizationEnergyCharge 4723.1806640625
scalar OsgEarthNet.uav[2] utilizationEnergyOverdrawMission 0
scalar OsgEarthNet.uav[2] utilizationEnergyOverdrawMaintenance 0
scalar OsgEarthNet.uav[2] utilizationCountMissions 1
scalar OsgEarthNet.uav[2] utilizationCountManeuversMission 13
scalar OsgEarthNet.uav[2] utilizationCountManeuversMaintenance 2
scalar OsgEarthNet.uav[2] utilizationCountChargeState 1
scalar OsgEarthNet.uav[2] utilizationCountOverdrawnAfterMission 0
scalar OsgEarthNet.uav[2] utilizationCountIdleState 2
scalar OsgEarthNet.uav[2] utilizationFail 0
scalar OsgEarthNet.uav[2] simulationTime 259200
scalar OsgEarthNet.uav[3] utilizationSecMission 650.68693590098
scalar OsgEarthNet.uav[3] utilizationSecMaintenance 350.31285707965
scalar OsgEarthNet.uav[3] utilizationSecCharge 3810
scalar OsgEarthNet.uav[3] utilizationSecIdle 254388.99920702
scalar OsgEarthNet.uav[3] utilizationEnergyMission 3062.9242248535
scalar OsgEarthNet.uav[3] utilizationEnergyMaintenance 1794.0844039917
scalar OsgEarthNet.uav[3] utilizationEnergyCharge 4857.0048828125
scalar OsgEarthNet.uav[3] utilizationEnergyOverdrawMission 0
scalar OsgEarthNet.uav[3] utilizationEnergyOverdrawMaintenance 0
scalar OsgEarthNet.uav[3] utilizationCountMissions 1
scalar OsgEarthNet.uav[3] utilizationCountManeuversMission 9
scalar OsgEarthNet.uav[3] utilizationCountManeuversMaintenance 2
scalar OsgEarthNet.uav[3] utilizationCountChargeState 1
scalar OsgEarthNet.uav[3] utilizationCountOverdrawnAfterMission 0
scalar OsgEarthNet.uav[3] utilizationCountIdleState 2
scalar OsgEarthNet.uav[3] utilizationFail 0
scalar OsgEarthNet.uav[3] simulationTime 259200
scalar OsgEarthNet.uav[4] utilizationSecMission 28832.003672046
scalar OsgEarthNet.uav[4] utilizationSecMaintenance 19808.131541436
scalar OsgEarthNet.uav[4] utilizationSecCharge 177397.86378652
scalar OsgEarthNet.uav[4] utilizationSecIdle 33162
scalar OsgEarthNet.uav[4] utilizationEnergyMission 133544.50562286
scalar OsgEarthNet.uav[4] utilizationEnergyMaintenance 93534.113578796
scalar OsgEarthNet.uav[4] utilizationEnergyCharge 224525.8717041
scalar OsgEarthNet.uav[4] utilizationEnergyOverdrawMission 0
scalar OsgEarthNet.uav[4] utilizationEnergyOverdrawMaintenance 0
scalar OsgEarthNet.uav[4] utilizationCountMissions 49
scalar OsgEarthNet.uav[4] utilizationCountManeuversMission 476
scalar OsgEarthNet.uav[4] utilizationCountManeuversMaintenance 97
scalar OsgEarthNet.uav[4] utilizationCountChargeState 49
scalar OsgEarthNet.uav[4] utilizationCountOverdrawnAfterMission 0
scalar OsgEarthNet.uav[4] utilizationCountIdleState 49
scalar OsgEarthNet.uav[4] utilizationFail 0
scalar OsgEarthNet.uav[4] simulationTime 259200
scalar OsgEarthNet.uav[5] utilizationSecMission 29523.535219235
scalar OsgEarthNet.uav[5] utilizationSecMaintenance 18204.463780765
scalar OsgEarthNet.uav[5] utilizationSecCharge 175600
scalar OsgEarthNet.uav[5] utilizationSecIdle 35872
scalar OsgEarthNet.uav[5] utilizationEnergyMission 137683.58766569
scalar OsgEarthNet.uav[5] utilizationEnergyMaintenance 85485.039108276
scalar OsgEarthNet.uav[5] utilizationEnergyCharge 220820.46484375
scalar OsgEarthNet.uav[5] utilizationEnergyOverdrawMission 0
scalar OsgEarthNet.uav[5] utilizationEnergyOverdrawMaintenance 0
scalar OsgEarthNet.uav[5] utilizationCountMissions 48
scalar OsgEarthNet.uav[5] utilizationCountManeuversMission 493
scalar OsgEarthNet.uav[5] utilizationCountManeuversMaintenance 96
scalar OsgEarthNet.uav[5] utilizationCountChargeState 48
scalar OsgEarthNet.uav[5] utilizationCountOverdrawnAfterMission 0
scalar OsgEarthNet.uav[5] utilizationCountIdleState 49
scalar OsgEarthNet.uav[5] utilizationFail 0
scalar OsgEarthNet.uav[5] simulationTime 259200
scalar OsgEarthNet.uav[6] utilizationSecMission 366.54558454727
scalar OsgEarthNet.uav[6] utilizationSecMaintenance 628.82077470535
scalar OsgEarthNet.uav[6] utilizationSecCharge 3680
scalar OsgEarthNet.uav[6] utilizationSecIdle 254524.63264075
scalar OsgEarthNet.uav[6] utilizationEnergyMission 1716.387512207
scalar OsgEarthNet.uav[6] utilizationEnergyMaintenance 2951.2155990601
scalar OsgEarthNet.uav[6] utilizationEnergyCharge 4667.6010742188
scalar OsgEarthNet.uav[6] utilizationEnergyOverdrawMission 0
scalar OsgEarthNet.uav[6] utilizationEnergyOverdrawMaintenance 0
scalar OsgEarthNet.uav[6] utilizationCountMissions 1
scalar OsgEarthNet.uav[6] utilizationCountManeuversMission 6
scalar OsgEarthNet.uav[6] utilizationCountManeuversMaintenance 2
scalar OsgEarthNet.uav[6] utilizationCountChargeState 1
scalar OsgEarthNet.uav[6] utilizationCountOverdrawnAfterMission 0
scalar OsgEarthNet.uav[6] utilizationCountIdleState 2
scalar OsgEarthNet.uav[6] utilizationFail 0
scalar OsgEarthNet.uav[6] simulationTime 259200
scalar OsgEarthNet.uav[7] utilizationSecMission 25892.078689873
scalar OsgEarthNet.uav[7] utilizationSecMaintenance 21402.685980166
scalar OsgEarthNet.uav[7] utilizationSecCharge 171087.91924375
scalar OsgEarthNet.uav[7] utilizationSecIdle 40817.315086215
scalar OsgEarthNet.uav[7] utilizationEnergyMission 120102.25556946
scalar OsgEarthNet.uav[7] utilizationEnergyMaintenance 98663.032009125
scalar OsgEarthNet.uav[7] utilizationEnergyCharge 214653.63659668
scalar OsgEarthNet.uav[7] utilizationEnergyOverdrawMission 0
scalar OsgEarthNet.uav[7] utilizationEnergyOverdrawMaintenance 0
scalar OsgEarthNet.uav[7] utilizationCountMissions 48
scalar OsgEarthNet.uav[7] utilizationCountManeuversMission 416
scalar OsgEarthNet.uav[7] utilizationCountManeuversMaintenance 96
scalar OsgEarthNet.uav[7] utilizationCountChargeState 48
scalar OsgEarthNet.uav[7] utilizationCountOverdrawnAfterMission 0
scalar OsgEarthNet.uav[7] utilizationCountIdleState 48
scalar OsgEarthNet.uav[7] utilizationFail 0
scalar OsgEarthNet.uav[7] simulationTime 259200
scalar OsgEarthNet.uav[8] utilizationSecMission 28205.973704881
scalar OsgEarthNet.uav[8] utilizationSecMaintenance 17347.050964177
scalar OsgEarthNet.uav[8] utilizationSecCharge 164457.79922053
scalar OsgEarthNet.uav[8] utilizationSecIdle 49189.175110411
scalar OsgEarthNet.uav[8] utilizationEnergyMission 130059.91802216
scalar OsgEarthNet.uav[8] utilizationEnergyMaintenance 81256.432350159
scalar OsgEarthNet.uav[8] utilizationEnergyCharge 206709.58898926
scalar OsgEarthNet.uav[8] utilizationEnergyOverdrawMission 0
scalar OsgEarthNet.uav[8] utilizationEnergyOverdrawMaintenance 0
scalar OsgEarthNet.uav[8] utilizationCountMissions 46
scalar OsgEarthNet.uav[8] utilizationCountManeuversMission 469
scalar OsgEarthNet.uav[8] utilizationCountManeuversMaintenance 92
scalar OsgEarthNet.uav[8] utilizationCountChargeState 46
scalar OsgEarthNet.uav[8] utilizationCountOverdrawnAfterMission 0
scalar OsgEarthNet.uav[8] utilizationCountIdleState 45
scalar OsgEarthNet.uav[8] utilizationFail 0
scalar OsgEarthNet.uav[8] simulationTime 259200
scalar OsgEarthNet.uav[9] utilizationSecMission 2555.3146900587
scalar OsgEarthNet.uav[9] utilizationSecMaintenance 1421.7494913778
scalar OsgEarthNet.uav[9] utilizationSecCharge 14650
scalar OsgEarthNet.uav[9] utilizationSecIdle 240572.93481856
scalar OsgEarthNet.uav[9] utilizationEnergyMission 11839.284851074
scalar OsgEarthNet.uav[9] utilizationEnergyMaintenance 6524.3932762146
scalar OsgEarthNet.uav[9] utilizationEnergyCharge 18357.120117188
scalar OsgEarthNet.uav[9] utilizationEnergyOverdrawMission 0
scalar OsgEarthNet.uav[9] utilizationEnergyOverdrawMaintenance 0
scalar OsgEarthNet.uav[9] utilizationCountMissions 4
scalar OsgEarthNet.uav[9] utilizationCountManeuversMission 40
scalar OsgEarthNet.uav[9] utilizationCountManeuversMaintenance 8
scalar OsgEarthNet.uav[9] utilizationCountChargeState 4
scalar OsgEarthNet.uav[9] utilizationCountOverdrawnAfterMission 0
scalar OsgEarthNet.uav[9] utilizationCountIdleState 5
scalar OsgEarthNet.uav[9] utilizationFail 0
scalar OsgEarthNet.uav[9] simulationTime 259200
scalar OsgEarthNet.uav[10] utilizationSecMission 26347.179426855
scalar OsgEarthNet.uav[10] utilizationSecMaintenance 18248.801294822
scalar OsgEarthNet.uav[10] utilizationSecCharge 161340
scalar OsgEarthNet.uav[10] utilizationSecIdle 53264.018278323
scalar OsgEarthNet.uav[10] utilizationEnergyMission 120067.27155048
scalar OsgEarthNet.uav[10] utilizationEnergyMaintenance 84141.233528137
scalar OsgEarthNet.uav[10] utilizationEnergyCharge 201509.41723633
scalar OsgEarthNet.uav[10] utilizationEnergyOverdrawMission 0
scalar OsgEarthNet.uav[10] utilizationEnergyOverdrawMaintenance 0
scalar OsgEarthNet.uav[10] utilizationCountMissions 45
scalar OsgEarthNet.uav[10] utilizationCountManeuversMission 429
scalar OsgEarthNet.uav[10] utilizationCountManeuversMaintenance 91
scalar OsgEarthNet.uav[10] utilizationCountChargeState 45
scalar OsgEarthNet.uav[10] utilizationCountOverdrawnAfterMission 0
scalar OsgEarthNet.uav[10] utilizationCountIdleState 46
scalar OsgEarthNet.uav[10] utilizationFail 0
scalar OsgEarthNet.uav[10] simulationTime 259200
scalar OsgEarthNet.uav[11] utilizationSecMission 28004.663327967
scalar OsgEarthNet.uav[11] utilizationSecMaintenance 18335.951667447
scalar OsgEarthNet.uav[11] utilizationSecCharge 171280
scalar OsgEarthNet.uav[11] utilizationSecIdle 41579.384004586
scalar OsgEarthNet.uav[11] utilizationEnergyMission 131402.08026167
scalar OsgEarthNet.uav[11] utilizationEnergyMaintenance 86070.990680695
scalar OsgEarthNet.uav[11] utilizationEnergyCharge 214976.7565918
scalar OsgEarthNet.uav[11] utilizationEnergyOverdrawMission 0
scalar OsgEarthNet.uav[11] utilizationEnergyOverdrawMaintenance 0
scalar OsgEarthNet.uav[11] utilizationCountMissions 47
scalar OsgEarthNet.uav[11] utilizationCountManeuversMission 465
scalar OsgEarthNet.uav[11] utilizationCountManeuversMaintenance 95
scalar OsgEarthNet.uav[11] utilizationCountChargeState 47
scalar OsgEarthNet.uav[11] utilizationCountOverdrawnAfterMission 0
scalar OsgEarthNet.uav[11] utilizationCountIdleState 48
scalar OsgEarthNet.uav[11] utilizationFail 0
scalar OsgEarthNet.uav[11] simulationTime 259200
scalar OsgEarthNet.uav[12] utilizationSecMission 14273.938611507
scalar OsgEarthNet.uav[12] utilizationSecMaintenance 9231.8317444514
scalar OsgEarthNet.uav[12] utilizationSecCharge 86684.597563377
scalar OsgEarthNet.uav[12] utilizationSecIdle 149009.63108067
scalar OsgEarthNet.uav[12] utilizationEnergyMission 66703.58190918
scalar OsgEarthNet.uav[12] utilizationEnergyMaintenance 42440.026943207
scalar OsgEarthNet.uav[12] utilizationEnergyCharge 108933.25927734
scalar OsgEarthNet.uav[12] utilizationEnergyOverdrawMission 0
scalar OsgEarthNet.uav[12] utilizationEnergyOverdrawMaintenance 0
scalar OsgEarthNet.uav[12] utilizationCountMissions 24
scalar OsgEarthNet.uav[12] utilizationCountManeuversMission 230
scalar OsgEarthNet.uav[12] utilizationCountManeuversMaintenance 48
scalar OsgEarthNet.uav[12] utilizationCountChargeState 24
scalar OsgEarthNet.uav[12] utilizationCountOverdrawnAfterMission 0
scalar OsgEarthNet.uav[12] utilizationCountIdleState 24
scalar OsgEarthNet.uav[12] utilizationFail 0
scalar OsgEarthNet.uav[12] simulationTime 259200
scalar OsgEarthNet.uav[13] utilizationSecMission 650.68693590098
scalar OsgEarthNet.uav[13] utilizationSecMaintenance 350.31285707965
scalar OsgEarthNet.uav[13] utilizationSecCharge 3740
scalar OsgEarthNet.uav[13] utilizationSecIdle 254458.99920702
scalar OsgEarthNet.uav[13] utilizationEnergyMission 2973.534072876
scalar OsgEarthNet.uav[13] utilizationEnergyMaintenance 1717.5345077515
scalar OsgEarthNet.uav[13] utilizationEnergyCharge 4691.0688476562
scalar OsgEarthNet.uav[13] utilizationEnergyOverdrawMission 0
scalar OsgEarthNet.uav[13] utilizationEnergyOverdrawMaintenance 0
scalar OsgEarthNet.uav[13] utilizationCountMissions 1
scalar OsgEarthNet.uav[13] utilizationCountManeuversMission 9
scalar OsgEarthNet.uav[13] utilizationCountManeuversMaintenance 2
scalar OsgEarthNet.uav[13] utilizationCountChargeState 1
scalar OsgEarthNet.uav[13] utilizationCountOverdrawnAfterMission 0
scalar OsgEarthNet.uav[13] utilizationCountIdleState 2
scalar OsgEarthNet.uav[13] utilizationFail 0
scalar OsgEarthNet.uav[13] simulationTime 259200
scalar OsgEarthNet.uav[14] utilizationSecMission 8680.0271726729
scalar OsgEarthNet.uav[14] utilizationSecMaintenance 5099.002177092
scalar OsgEarthNet.uav[14] utilizationSecCharge 51150
scalar OsgEarthNet.uav[14] utilizationSecIdle 194270.96965024
scalar OsgEarthNet.uav[14] utilizationEnergyMission 40225.031440735
scalar OsgEarthNet.uav[14] utilizationEnergyMaintenance 23941.432350159
scalar OsgEarthNet.uav[14] utilizationEnergyCharge 64047.495117188
scalar OsgEarthNet.uav[14] utilizationEnergyOverdrawMission 0
scalar OsgEarthNet.uav[14] utilizationEnergyOverdrawMaintenance 0
scalar OsgEarthNet.uav[14] utilizationCountMissions 14
scalar OsgEarthNet.uav[14] utilizationCountManeuversMission 148
scalar OsgEarthNet.uav[14] utilizationCountManeuversMaintenance 28
scalar OsgEarthNet.uav[14] utilizationCountChargeState 14
scalar OsgEarthNet.uav[14] utilizationCountOverdrawnAfterMission 0
scalar OsgEarthNet.uav[14] utilizationCountIdleState 15
scalar OsgEarthNet.uav[14] utilizationFail 0
scalar OsgEarthNet.uav[14] simulationTime 259200
scalar OsgEarthNet.uav[15] utilizationSecMission 9338.3581655868
scalar OsgEarthNet.uav[15] utilizationSecMaintenance 6193.1542627678
scalar OsgEarthNet.uav[15] utilizationSecCharge 56950
scalar OsgEarthNet.uav[15] utilizationSecIdle 186718.48657165
scalar OsgEarthNet.uav[15] utilizationEnergyMission 42367.879920959
scalar OsgEarthNet.uav[15] utilizationEnergyMaintenance 28668.718597412
scalar OsgEarthNet.uav[15] utilizationEnergyCharge 70944.309814453
scalar OsgEarthNet.uav[15] utilizationEnergyOverdrawMission 0
scalar OsgEarthNet.uav[15] utilizationEnergyOverdrawMaintenance 0
scalar OsgEarthNet.uav[15] utilizationCountMissions 16
scalar OsgEarthNet.uav[15] utilizationCountManeuversMission 151
scalar OsgEarthNet.uav[15] utilizationCountManeuversMaintenance 32
scalar OsgEarthNet.uav[15] utilizationCountChargeState 16
scalar OsgEarthNet.uav[15] utilizationCountOverdrawnAfterMission 0
scalar OsgEarthNet.uav[15] utilizationCountIdleState 17
scalar OsgEarthNet.uav[15] utilizationFail 0
scalar OsgEarthNet.uav[15] simulationTime 259200
scalar OsgEarthNet.uav[16] utilizationSecMission 29976.047658979
scalar OsgEarthNet.uav[16] utilizationSecMaintenance 16506.096309017
scalar OsgEarthNet.uav[16] utilizationSecCharge 167305.08905807
scalar OsgEarthNet.uav[16] utilizationSecIdle 45412.765973934
scalar OsgEarthNet.uav[16] utilizationEnergyMission 137192.95752716
scalar OsgEarthNet.uav[16] utilizationEnergyMaintenance 75747.707935333
scalar OsgEarthNet.uav[16] utilizationEnergyCharge 209930.78857422
scalar OsgEarthNet.uav[16] utilizationEnergyOverdrawMission 0
scalar OsgEarthNet.uav[16] utilizationEnergyOverdrawMaintenance 0
scalar OsgEarthNet.uav[16] utilizationCountMissions 47
scalar OsgEarthNet.uav[16] utilizationCountManeuversMission 478
scalar OsgEarthNet.uav[16] utilizationCountManeuversMaintenance 94
scalar OsgEarthNet.uav[16] utilizationCountChargeState 47
scalar OsgEarthNet.uav[16] utilizationCountOverdrawnAfterMission 0
scalar OsgEarthNet.uav[16] utilizationCountIdleState 47
scalar OsgEarthNet.uav[16] utilizationFail 0
scalar OsgEarthNet.uav[16] simulationTime 259200
scalar OsgEarthNet.uav[17] utilizationSecMission 12601.337512031
scalar OsgEarthNet.uav[17] utilizationSecMaintenance 8832.0960633307
scalar OsgEarthNet.uav[17] utilizationSecCharge 79250
scalar OsgEarthNet.uav[17] utilizationSecIdle 158516.56542464
scalar OsgEarthNet.uav[17] utilizationEnergyMission 58792.734085083
scalar OsgEarthNet.uav[17] utilizationEnergyMaintenance 40311.789978027
scalar OsgEarthNet.uav[17] utilizationEnergyCharge 99104.89453125
scalar OsgEarthNet.uav[17] utilizationEnergyOverdrawMission 0
scalar OsgEarthNet.uav[17] utilizationEnergyOverdrawMaintenance 0
scalar OsgEarthNet.uav[17] utilizationCountMissions 22
scalar OsgEarthNet.uav[17] utilizationCountManeuversMission 204
scalar OsgEarthNet.uav[17] utilizationCountManeuversMaintenance 44
scalar OsgEarthNet.uav[17] utilizationCountChargeState 22
scalar OsgEarthNet.uav[17] utilizationCountOverdrawnAfterMission 0
scalar OsgEarthNet.uav[17] utilizationCountIdleState 23
scalar OsgEarthNet.uav[17] utilizationFail 0
scalar OsgEarthNet.uav[17] simulationTime 259200
scalar OsgEarthNet.uav[18] utilizationSecMission 750.20472747826
scalar OsgEarthNet.uav[18] utilizationSecMaintenance 255.5651663541
scalar OsgEarthNet.uav[18] utilizationSecCharge 3790
scalar OsgEarthNet.uav[18] utilizationSecIdle 254404.22910617
scalar OsgEarthNet.uav[18] utilizationEnergyMission 3586.404800415
scalar OsgEarthNet.uav[18] utilizationEnergyMaintenance 1190.607006073
scalar OsgEarthNet.uav[18] utilizationEnergyCharge 4777.0107421875
scalar OsgEarthNet.uav[18] utilizationEnergyOverdrawMission 0
scalar OsgEarthNet.uav[18] utilizationEnergyOverdrawMaintenance 0
scalar OsgEarthNet.uav[18] utilizationCountMissions 1
scalar OsgEarthNet.uav[18] utilizationCountManeuversMission 11
scalar OsgEarthNet.uav[18] utilizationCountManeuversMaintenance 2
scalar OsgEarthNet.uav[18] utilizationCountChargeState 1
scalar OsgEarthNet.uav[18] utilizationCountOverdrawnAfterMission 0
scalar OsgEarthNet.uav[18] utilizationCountIdleState 2
scalar OsgEarthNet.uav[18] utilizationFail 0
scalar OsgEarthNet.uav[18] simulationTime 259200
scalar OsgEarthNet.uav[19] utilizationSecMission 760.62515258028
scalar OsgEarthNet.uav[19] utilizationSecMaintenance 202.91610409653
scalar OsgEarthNet.uav[19] utilizationSecCharge 3520
scalar OsgEarthNet.uav[19] utilizationSecIdle 254716.45774332
scalar OsgEarthNet.uav[19] utilizationEnergyMission 3524.9416809082
scalar OsgEarthNet.uav[19] utilizationEnergyMaintenance 901.9619064331
scalar OsgEarthNet.uav[19] utilizationEnergyCharge 4337.8110351562
scalar OsgEarthNet.uav[19] utilizationEnergyOverdrawMission 0
scalar OsgEarthNet.uav[19] utilizationEnergyOverdrawMaintenance 0
scalar OsgEarthNet.uav[19] utilizationCountMissions 1
scalar OsgEarthNet.uav[19] utilizationCountManeuversMission 12
scalar OsgEarthNet.uav[19] utilizationCountManeuversMaintenance 2
scalar OsgEarthNet.uav[19] utilizationCountChargeState 1
scalar OsgEarthNet.uav[19] utilizationCountOverdrawnAfterMission 0
scalar OsgEarthNet.uav[19] utilizationCountIdleState 2
scalar OsgEarthNet.uav[19] utilizationFail 0
scalar OsgEarthNet.uav[19] simulationTime 259200
scalar OsgEarthNet.uav[20] utilizationSecMission 485.28176963209
scalar OsgEarthNet.uav[20] utilizationSecMaintenance 526.02367181267
scalar OsgEarthNet.uav[20] utilizationSecCharge 3670
scalar OsgEarthNet.uav[20] utilizationSecIdle 254518.69355856
scalar OsgEarthNet.uav[20] utilizationEnergyMission 2288.5254821777
scalar OsgEarthNet.uav[20] utilizationEnergyMaintenance 2342.717918396
scalar OsgEarthNet.uav[20] utilizationEnergyCharge 4631.248046875
scalar OsgEarthNet.uav[20] utilizationEnergyOverdrawMission 0
scalar OsgEarthNet.uav[20] utilizationEnergyOverdrawMaintenance 0
scalar OsgEarthNet.uav[20] utilizationCountMissions 1
scalar OsgEarthNet.uav[20] utilizationCountManeuversMission 8
scalar OsgEarthNet.uav[20] utilizationCountManeuversMaintenance 2
scalar OsgEarthNet.uav[20] utilizationCountChargeState 1
scalar OsgEarthNet.uav[20] utilizationCountOverdrawnAfterMission 0
scalar OsgEarthNet.uav[20] utilizationCountIdleState 2
scalar OsgEarthNet.uav[20] utilizationFail 0
scalar OsgEarthNet.uav[20] simulationTime 259200
scalar OsgEarthNet.uav[21] utilizationSecMission 502.567493222
scalar OsgEarthNet.uav[21] utilizationSecMaintenance 492.34067441359
scalar OsgEarthNet.uav[21] utilizationSecCharge 3810
scalar OsgEarthNet.uav[21] utilizationSecIdle 254395.09083236
scalar OsgEarthNet.uav[21] utilizationEnergyMission 2301.8166656494
scalar OsgEarthNet.uav[21] utilizationEnergyMaintenance 2482.7039299011
scalar OsgEarthNet.uav[21] utilizationEnergyCharge 4868.4809570312
scalar OsgEarthNet.uav[21] utilizationEnergyOverdrawMission 0
scalar OsgEarthNet.uav[21] utilizationEnergyOverdrawMaintenance 0
scalar OsgEarthNet.uav[21] utilizationCountMissions 1
scalar OsgEarthNet.uav[21] utilizationCountManeuversMission 8
scalar OsgEarthNet.uav[21] utilizationCountManeuversMaintenance 2
scalar OsgEarthNet.uav[21] utilizationCountChargeState 1
scalar OsgEarthNet.uav[21] utilizationCountOverdrawnAfterMission 0
scalar OsgEarthNet.uav[21] utilizationCountIdleState 2
scalar OsgEarthNet.uav[21] utilizationFail 0
scalar OsgEarthNet.uav[21] simulationTime 259200
scalar OsgEarthNet.uav[22] utilizationSecMission 26598.876964685
scalar OsgEarthNet.uav[22] utilizationSecMaintenance 16596.415517479
scalar OsgEarthNet.uav[22] utilizationSecCharge 156545.28117055
scalar OsgEarthNet.uav[22] utilizationSecIdle 59459.42534729
scalar OsgEarthNet.uav[22] utilizationEnergyMission 122416.16688538
scalar OsgEarthNet.uav[22] utilizationEnergyMaintenance 78063.844451904
scalar OsgEarthNet.uav[22] utilizationEnergyCharge 196538.01123047
scalar OsgEarthNet.uav[22] utilizationEnergyOverdrawMission 0
scalar OsgEarthNet.uav[22] utilizationEnergyOverdrawMaintenance 0
scalar OsgEarthNet.uav[22] utilizationCountMissions 44
scalar OsgEarthNet.uav[22] utilizationCountManeuversMission 444
scalar OsgEarthNet.uav[22] utilizationCountManeuversMaintenance 88
scalar OsgEarthNet.uav[22] utilizationCountChargeState 44
scalar OsgEarthNet.uav[22] utilizationCountOverdrawnAfterMission 0
scalar OsgEarthNet.uav[22] utilizationCountIdleState 44
scalar OsgEarthNet.uav[22] utilizationFail 0
scalar OsgEarthNet.uav[22] simulationTime 259200
scalar OsgEarthNet.uav[23] utilizationSecMission 343.68863208153
scalar OsgEarthNet.uav[23] utilizationSecMaintenance 589.36831023416
scalar OsgEarthNet.uav[23] utilizationSecCharge 3600
scalar OsgEarthNet.uav[23] utilizationSecIdle 254666.94205768
scalar OsgEarthNet.uav[23] utilizationEnergyMission 1713.2846984863
scalar OsgEarthNet.uav[23] utilizationEnergyMaintenance 2746.0988883972
scalar OsgEarthNet.uav[23] utilizationEnergyCharge 4459.3857421875
scalar OsgEarthNet.uav[23] utilizationEnergyOverdrawMission 0
scalar OsgEarthNet.uav[23] utilizationEnergyOverdrawMaintenance 0
scalar OsgEarthNet.uav[23] utilizationCountMissions 1
scalar OsgEarthNet.uav[23] utilizationCountManeuversMission 7
scalar OsgEarthNet.uav[23] utilizationCountManeuversMaintenance 2
scalar OsgEarthNet.uav[23] utilizationCountChargeState 1
scalar OsgEarthNet.uav[23] utilizationCountOverdrawnAfterMission 0
scalar OsgEarthNet.uav[23] utilizationCountIdleState 2
scalar OsgEarthNet.uav[23] utilizationFail 0
scalar OsgEarthNet.uav[23] simulationTime 259200
scalar OsgEarthNet.uav[24] utilizationSecMission 22864.881624009
scalar OsgEarthNet.uav[24] utilizationSecMaintenance 17231.031775642
scalar OsgEarthNet.uav[24] utilizationSecCharge 145587.51973307
scalar OsgEarthNet.uav[24] utilizationSecIdle 73516.565867276
scalar OsgEarthNet.uav[24] utilizationEnergyMission 104758.64898682
scalar OsgEarthNet.uav[24] utilizationEnergyMaintenance 80323.538787842
scalar OsgEarthNet.uav[24] utilizationEnergyCharge 184168.80053711
scalar OsgEarthNet.uav[24] utilizationEnergyOverdrawMission 0
scalar OsgEarthNet.uav[24] utilizationEnergyOverdrawMaintenance 0
scalar OsgEarthNet.uav[24] utilizationCountMissions 40
scalar OsgEarthNet.uav[24] utilizationCountManeuversMission 374
scalar OsgEarthNet.uav[24] utilizationCountManeuversMaintenance 80
scalar OsgEarthNet.uav[24] utilizationCountChargeState 40
scalar OsgEarthNet.uav[24] utilizationCountOverdrawnAfterMission 0
scalar OsgEarthNet.uav[24] utilizationCountIdleState 40
scalar OsgEarthNet.uav[24] utilizationFail 0
scalar OsgEarthNet.uav[24] simulationTime 259200
scalar OsgEarthNet.uav[25] utilizationSecMission 1654.0014558983
scalar OsgEarthNet.uav[25] utilizationSecMaintenance 422.85270532227
scalar OsgEarthNet.uav[25] utilizationSecCharge 7420
scalar OsgEarthNet.uav[25] utilizationSecIdle 249703.14483878
scalar OsgEarthNet.uav[25] utilizationEnergyMission 7328.4352874756
scalar OsgEarthNet.uav[25] utilizationEnergyMaintenance 1990.8706703186
scalar OsgEarthNet.uav[25] utilizationEnergyCharge 9312.5903320312
scalar OsgEarthNet.uav[25] utilizationEnergyOverdrawMission 0
scalar OsgEarthNet.uav[25] utilizationEnergyOverdrawMaintenance 0
scalar OsgEarthNet.uav[25] utilizationCountMissions 2
scalar OsgEarthNet.uav[25] utilizationCountManeuversMission 28
scalar OsgEarthNet.uav[25] utilizationCountManeuversMaintenance 4
scalar OsgEarthNet.uav[25] utilizationCountChargeState 2
scalar OsgEarthNet.uav[25] utilizationCountOverdrawnAfterMission 0
scalar OsgEarthNet.uav[25] utilizationCountIdleState 3
scalar OsgEarthNet.uav[25] utilizationFail 0
scalar OsgEarthNet.uav[25] simulationTime 259200
scalar OsgEarthNet.uav[26] utilizationSecMission 313.66140879233
scalar OsgEarthNet.uav[26] utilizationSecMaintenance 473.03391658586
scalar OsgEarthNet.uav[26] utilizationSecCharge 3210
scalar OsgEarthNet.uav[26] utilizationSecIdle 255203.30367462
scalar OsgEarthNet.uav[26] utilizationEnergyMission 1434.1659393311
scalar OsgEarthNet.uav[26] utilizationEnergyMaintenance 2353.2986068726
scalar OsgEarthNet.uav[26] utilizationEnergyCharge 3787.462890625
scalar OsgEarthNet.uav[26] utilizationEnergyOverdrawMission 0
scalar OsgEarthNet.uav[26] utilizationEnergyOverdrawMaintenance 0
scalar OsgEarthNet.uav[26] utilizationCountMissions 1
scalar OsgEarthNet.uav[26] utilizationCountManeuversMission 5
scalar OsgEarthNet.uav[26] utilizationCountManeuversMaintenance 2
scalar OsgEarthNet.uav[26] utilizationCountChargeState 1
scalar OsgEarthNet.uav[26] utilizationCountOverdrawnAfterMission 0
scalar OsgEarthNet.uav[26] utilizationCountIdleState 2
scalar OsgEarthNet.uav[26] utilizationFail 0
scalar OsgEarthNet.uav[26] simulationTime 259200
scalar OsgEarthNet.uav[27] utilizationSecMission 735.78851234514
scalar OsgEarthNet.uav[27] utilizationSecMaintenance 352.70871985292
scalar OsgEarthNet.uav[27] utilizationSecCharge 3780
scalar OsgEarthNet.uav[27] utilizationSecIdle 254331.5017678
scalar OsgEarthNet.uav[27] utilizationEnergyMission 3217.689666748
scalar OsgEarthNet.uav[27] utilizationEnergyMaintenance 1548.7782821655
scalar OsgEarthNet.uav[27] utilizationEnergyCharge 4766.4682617188
scalar OsgEarthNet.uav[27] utilizationEnergyOverdrawMission 0
scalar OsgEarthNet.uav[27] utilizationEnergyOverdrawMaintenance 0
scalar OsgEarthNet.uav[27] utilizationCountMissions 1
scalar OsgEarthNet.uav[27] utilizationCountManeuversMission 13
scalar OsgEarthNet.uav[27] utilizationCountManeuversMaintenance 2
scalar OsgEarthNet.uav[27] utilizationCountChargeState 1
scalar OsgEarthNet.uav[27] utilizationCountOverdrawnAfterMission 0
scalar OsgEarthNet.uav[27] utilizationCountIdleState 2
scalar OsgEarthNet.uav[27] utilizationFail 0
scalar OsgEarthNet.uav[27] simulationTime 259200
scalar OsgEarthNet.uav[28] utilizationSecMission 1500.4094549565
scalar OsgEarthNet.uav[28] utilizationSecMaintenance 511.25039935891
scalar OsgEarthNet.uav[28] utilizationSecCharge 7400
scalar OsgEarthNet.uav[28] utilizationSecIdle 249788.33914568
scalar OsgEarthNet.uav[28] utilizationEnergyMission 7119.3914794922
scalar OsgEarthNet.uav[28] utilizationEnergyMaintenance 2177.9224472046
scalar OsgEarthNet.uav[28] utilizationEnergyCharge 9297.310546875
scalar OsgEarthNet.uav[28] utilizationEnergyOverdrawMission 0
scalar OsgEarthNet.uav[28] utilizationEnergyOverdrawMaintenance 0
scalar OsgEarthNet.uav[28] utilizationCountMissions 2
scalar OsgEarthNet.uav[28] utilizationCountManeuversMission 22
scalar OsgEarthNet.uav[28] utilizationCountManeuversMaintenance 4
scalar OsgEarthNet.uav[28] utilizationCountChargeState 2
scalar OsgEarthNet.uav[28] utilizationCountOverdrawnAfterMission 0
scalar OsgEarthNet.uav[28] utilizationCountIdleState 3
scalar OsgEarthNet.uav[28] utilizationFail 0
scalar OsgEarthNet.uav[28] simulationTime 259200
scalar OsgEarthNet.uav[29] utilizationSecMission 19784.831800705
scalar OsgEarthNet.uav[29] utilizationSecMaintenance 10476.446609094
scalar OsgEarthNet.uav[29] utilizationSecCharge 110501.5715509
scalar OsgEarthNet.uav[29] utilizationSecIdle 118437.1490393
scalar OsgEarthNet.uav[29] utilizationEnergyMission 91851.78818512
scalar OsgEarthNet.uav[29] utilizationEnergyMaintenance 48156.113414764
scalar OsgEarthNet.uav[29] utilizationEnergyCharge 139231.15771484
scalar OsgEarthNet.uav[29] utilizationEnergyOverdrawMission 0
scalar OsgEarthNet.uav[29] utilizationEnergyOverdrawMaintenance 0
scalar OsgEarthNet.uav[29] utilizationCountMissions 31
scalar OsgEarthNet.uav[29] utilizationCountManeuversMission 312
scalar OsgEarthNet.uav[29] utilizationCountManeuversMaintenance 62
scalar OsgEarthNet.uav[29] utilizationCountChargeState 31
scalar OsgEarthNet.uav[29] utilizationCountOverdrawnAfterMission 0
scalar OsgEarthNet.uav[29] utilizationCountIdleState 31
scalar OsgEarthNet.uav[29] utilizationFail 0
scalar OsgEarthNet.uav[29] simulationTime 259200
scalar OsgEarthNet.uav[30] utilizationSecMission 27705.010061727
scalar OsgEarthNet.uav[30] utilizationSecMaintenance 19710.82359374
scalar OsgEarthNet.uav[30] utilizationSecCharge 175562.16534453
scalar OsgEarthNet.uav[30] utilizationSecIdle 36222
scalar OsgEarthNet.uav[30] utilizationEnergyMission 129889.49674225
scalar OsgEarthNet.uav[30] utilizationEnergyMaintenance 92564.928863525
scalar OsgEarthNet.uav[30] utilizationEnergyCharge 221944.88037109
scalar OsgEarthNet.uav[30] utilizationEnergyOverdrawMission 0
scalar OsgEarthNet.uav[30] utilizationEnergyOverdrawMaintenance 0
scalar OsgEarthNet.uav[30] utilizationCountMissions 48
scalar OsgEarthNet.uav[30] utilizationCountManeuversMission 460
scalar OsgEarthNet.uav[30] utilizationCountManeuversMaintenance 95
scalar OsgEarthNet.uav[30] utilizationCountChargeState 48
scalar OsgEarthNet.uav[30] utilizationCountOverdrawnAfterMission 0
scalar OsgEarthNet.uav[30] utilizationCountIdleState 48
scalar OsgEarthNet.uav[30] utilizationFail 0
scalar OsgEarthNet.uav[30] simulationTime 259200
scalar OsgEarthNet.uav[31] utilizationSecMission 27980.873929409
scalar OsgEarthNet.uav[31] utilizationSecMaintenance 16047.543480254
scalar OsgEarthNet.uav[31] utilizationSecCharge 160450.52578638
scalar OsgEarthNet.uav[31] utilizationSecIdle 54721.055803961
scalar OsgEarthNet.uav[31] utilizationEnergyMission 128673.31846619
scalar OsgEarthNet.uav[31] utilizationEnergyMaintenance 74321.446052551
scalar OsgEarthNet.uav[31] utilizationEnergyCharge 201733.54345703
scalar OsgEarthNet.uav[31] utilizationEnergyOverdrawMission 0
scalar OsgEarthNet.uav[31] utilizationEnergyOverdrawMaintenance 0
scalar OsgEarthNet.uav[31] utilizationCountMissions 45
scalar OsgEarthNet.uav[31] utilizationCountManeuversMission 459
scalar OsgEarthNet.uav[31] utilizationCountManeuversMaintenance 90
scalar OsgEarthNet.uav[31] utilizationCountChargeState 45
scalar OsgEarthNet.uav[31] utilizationCountOverdrawnAfterMission 0
scalar OsgEarthNet.uav[31] utilizationCountIdleState 45
scalar OsgEarthNet.uav[31] utilizationFail 0
scalar OsgEarthNet.uav[31] simulationTime 259200
scalar OsgEarthNet.uav[32] utilizationSecMission 24337.132348671
scalar OsgEarthNet.uav[32] utilizationSecMaintenance 15711.121542837
scalar OsgEarthNet.uav[32] utilizationSecCharge 146800
scalar OsgEarthNet.uav[32] utilizationSecIdle 72351.745108492
scalar OsgEarthNet.uav[32] utilizationEnergyMission 112501.51687622
scalar OsgEarthNet.uav[32] utilizationEnergyMaintenance 72893.296447754
scalar OsgEarthNet.uav[32] utilizationEnergyCharge 184792.7121582
scalar OsgEarthNet.uav[32] utilizationEnergyOverdrawMission 0
scalar OsgEarthNet.uav[32] utilizationEnergyOverdrawMaintenance 0
scalar OsgEarthNet.uav[32] utilizationCountMissions 40
scalar OsgEarthNet.uav[32] utilizationCountManeuversMission 389
scalar OsgEarthNet.uav[32] utilizationCountManeuversMaintenance 80
scalar OsgEarthNet.uav[32] utilizationCountChargeState 40
scalar OsgEarthNet.uav[32] utilizationCountOverdrawnAfterMission 0
scalar OsgEarthNet.uav[32] utilizationCountIdleState 41
scalar OsgEarthNet.uav[32] utilizationFail 0
scalar OsgEarthNet.uav[32] simulationTime 259200
scalar OsgEarthNet.uav[33] utilizationSecMission 27821.837632512
scalar OsgEarthNet.uav[33] utilizationSecMaintenance 19717.255075554
scalar OsgEarthNet.uav[33] utilizationSecCharge 174798.28013114
scalar OsgEarthNet.uav[33] utilizationSecIdle 36862.626160789
scalar OsgEarthNet.uav[33] utilizationEnergyMission 129020.26472855
scalar OsgEarthNet.uav[33] utilizationEnergyMaintenance 93084.781841278
scalar OsgEarthNet.uav[33] utilizationEnergyCharge 221019.35522461
scalar OsgEarthNet.uav[33] utilizationEnergyOverdrawMission 0
scalar OsgEarthNet.uav[33] utilizationEnergyOverdrawMaintenance 0
scalar OsgEarthNet.uav[33] utilizationCountMissions 48
scalar OsgEarthNet.uav[33] utilizationCountManeuversMission 464
scalar OsgEarthNet.uav[33] utilizationCountManeuversMaintenance 96
scalar OsgEarthNet.uav[33] utilizationCountChargeState 48
scalar OsgEarthNet.uav[33] utilizationCountOverdrawnAfterMission 0
scalar OsgEarthNet.uav[33] utilizationCountIdleState 48
scalar OsgEarthNet.uav[33] utilizationFail 0
scalar OsgEarthNet.uav[33] simulationTime 259200
scalar OsgEarthNet.uav[34] utilizationSecMission 26694.337369545
scalar OsgEarthNet.uav[34] utilizationSecMaintenance 21013.932823865
scalar OsgEarthNet.uav[34] utilizationSecCharge 174035.0479987
scalar OsgEarthNet.uav[34] utilizationSecIdle 37456.680807888
scalar OsgEarthNet.uav[34] utilizationEnergyMission 122381.47265625
scalar OsgEarthNet.uav[34] utilizationEnergyMaintenance 98366.368492126
scalar OsgEarthNet.uav[34] utilizationEnergyCharge 219536.74316406
scalar OsgEarthNet.uav[34] utilizationEnergyOverdrawMission 0
scalar OsgEarthNet.uav[34] utilizationEnergyOverdrawMaintenance 0
scalar OsgEarthNet.uav[34] utilizationCountMissions 48
scalar OsgEarthNet.uav[34] utilizationCountManeuversMission 432
scalar OsgEarthNet.uav[34] utilizationCountManeuversMaintenance 96
scalar OsgEarthNet.uav[34] utilizationCountChargeState 48
scalar OsgEarthNet.uav[34] utilizationCountOverdrawnAfterMission 0
scalar OsgEarthNet.uav[34] utilizationCountIdleState 48
scalar OsgEarthNet.uav[34] utilizationFail 0
scalar OsgEarthNet.uav[34] simulationTime 259200
scalar OsgEarthNet.uav[35] utilizationSecMission 26237.253418671
scalar OsgEarthNet.uav[35] utilizationSecMaintenance 17363.894127835
scalar OsgEarthNet.uav[35] utilizationSecCharge 156907.39849478
scalar OsgEarthNet.uav[35] utilizationSecIdle 58691.452958717
scalar OsgEarthNet.uav[35] utilizationEnergyMission 119864.4289093
scalar OsgEarthNet.uav[35] utilizationEnergyMaintenance 79883.528751373
scalar OsgEarthNet.uav[35] utilizationEnergyCharge 197058.27514648
scalar OsgEarthNet.uav[35] utilizationEnergyOverdrawMission 0
scalar OsgEarthNet.uav[35] utilizationEnergyOverdrawMaintenance 0
scalar OsgEarthNet.uav[35] utilizationCountMissions 44
scalar OsgEarthNet.uav[35] utilizationCountManeuversMission 420
scalar OsgEarthNet.uav[35] utilizationCountManeuversMaintenance 88
scalar OsgEarthNet.uav[35] utilizationCountChargeState 44
scalar OsgEarthNet.uav[35] utilizationCountOverdrawnAfterMission 0
scalar OsgEarthNet.uav[35] utilizationCountIdleState 44
scalar OsgEarthNet.uav[35] utilizationFail 0
scalar OsgEarthNet.uav[35] simulationTime 259200
scalar OsgEarthNet.uav[36] utilizationSecMission 623.68863475643
scalar OsgEarthNet.uav[36] utilizationSecMaintenance 394.94199877579
scalar OsgEarthNet.uav[36] utilizationSecCharge 3810
scalar OsgEarthNet.uav[36] utilizationSecIdle 254371.36836647
scalar OsgEarthNet.uav[36] utilizationEnergyMission 2899.3214416504
scalar OsgEarthNet.uav[36] utilizationEnergyMaintenance 1904.8564682007
scalar OsgEarthNet.uav[36] utilizationEnergyCharge 4862.7768554688
scalar OsgEarthNet.uav[36] utilizationEnergyOverdrawMission 0
scalar OsgEarthNet.uav[36] utilizationEnergyOverdrawMaintenance 0
scalar OsgEarthNet.uav[36] utilizationCountMissions 1
scalar OsgEarthNet.uav[36] utilizationCountManeuversMission 10
scalar OsgEarthNet.uav[36] utilizationCountManeuversMaintenance 2
scalar OsgEarthNet.uav[36] utilizationCountChargeState 1
scalar OsgEarthNet.uav[36] utilizationCountOverdrawnAfterMission 0
scalar OsgEarthNet.uav[36] utilizationCountIdleState 2
scalar OsgEarthNet.uav[36] utilizationFail 0
scalar OsgEarthNet.uav[36] simulationTime 259200
scalar OsgEarthNet.uav[37] utilizationSecMission 528.55000878666
scalar OsgEarthNet.uav[37] utilizationSecMaintenance 413.64453676047
scalar OsgEarthNet.uav[37] utilizationSecCharge 3610
scalar OsgEarthNet.uav[37] utilizationSecIdle 254647.80445445
scalar OsgEarthNet.uav[37] utilizationEnergyMission 2635.346572876
scalar OsgEarthNet.uav[37] utilizationEnergyMaintenance 1853.7230453491
scalar OsgEarthNet.uav[37] utilizationEnergyCharge 4489.0712890625
scalar OsgEarthNet.uav[37] utilizationEnergyOverdrawMission 0
scalar OsgEarthNet.uav[37] utilizationEnergyOverdrawMaintenance 0
scalar OsgEarthNet.uav[37] utilizationCountMissions 1
scalar OsgEarthNet.uav[37] utilizationCountManeuversMission 10
scalar OsgEarthNet.uav[37] utilizationCountManeuversMaintenance 2
scalar OsgEarthNet.uav[37] utilizationCountChargeState 1
scalar OsgEarthNet.uav[37] utilizationCountOverdrawnAfterMission 0
scalar OsgEarthNet.uav[37] utilizationCountIdleState 2
scalar OsgEarthNet.uav[37] utilizationFail 0
scalar OsgEarthNet.uav[37] simulationTime 259200
scalar OsgEarthNet.uav[38] utilizationSecMission 887.1741082606
scalar OsgEarthNet.uav[38] utilizationSecMaintenance 148.2728194454
scalar OsgEarthNet.uav[38] utilizationSecCharge 3770
scalar OsgEarthNet.uav[38] utilizationSecIdle 254394.55207229
scalar OsgEarthNet.uav[38] utilizationEnergyMission 4219.8575439453
scalar OsgEarthNet.uav[38] utilizationEnergyMaintenance 675.64778900146
scalar OsgEarthNet.uav[38] utilizationEnergyCharge 4737.1479492188
scalar OsgEarthNet.uav[38] utilizationEnergyOverdrawMission 0
scalar OsgEarthNet.uav[38] utilizationEnergyOverdrawMaintenance 0
scalar OsgEarthNet.uav[38] utilizationCountMissions 1
scalar OsgEarthNet.uav[38] utilizationCountManeuversMission 14
scalar OsgEarthNet.uav[38] utilizationCountManeuversMaintenance 2
scalar OsgEarthNet.uav[38] utilizationCountChargeState 1
scalar OsgEarthNet.uav[38] utilizationCountOverdrawnAfterMission 0
scalar OsgEarthNet.uav[38] utilizationCountIdleState 2
scalar OsgEarthNet.uav[38] utilizationFail 0
scalar OsgEarthNet.uav[38] simulationTime 259200
scalar OsgEarthNet.uav[39] utilizationSecMission 6039.8933055029
scalar OsgEarthNet.uav[39] utilizationSecMaintenance 3838.4294448544
scalar OsgEarthNet.uav[39] utilizationSecCharge 36440
scalar OsgEarthNet.uav[39] utilizationSecIdle 212881.67624964
scalar OsgEarthNet.uav[39] utilizationEnergyMission 28083.121261597
scalar OsgEarthNet.uav[39] utilizationEnergyMaintenance 18149.574832916
scalar OsgEarthNet.uav[39] utilizationEnergyCharge 45794.137695312
scalar OsgEarthNet.uav[39] utilizationEnergyOverdrawMission 0
scalar OsgEarthNet.uav[39] utilizationEnergyOverdrawMaintenance 0
scalar OsgEarthNet.uav[39] utilizationCountMissions 10
scalar OsgEarthNet.uav[39] utilizationCountManeuversMission 97
scalar OsgEarthNet.uav[39] utilizationCountManeuversMaintenance 20
scalar OsgEarthNet.uav[39] utilizationCountChargeState 10
scalar OsgEarthNet.uav[39] utilizationCountOverdrawnAfterMission 0
scalar OsgEarthNet.uav[39] utilizationCountIdleState 11
scalar OsgEarthNet.uav[39] utilizationFail 0
scalar OsgEarthNet.uav[39] simulationTime 259200
scalar OsgEarthNet.uav[40] utilizationSecMission 12606.713191582
scalar OsgEarthNet.uav[40] utilizationSecMaintenance 6081.639257811
scalar OsgEarthNet.uav[40] utilizationSecCharge 69300
scalar OsgEarthNet.uav[40] utilizationSecIdle 171211.64655061
scalar OsgEarthNet.uav[40] utilizationEnergyMission 58566.085800171
scalar OsgEarthNet.uav[40] utilizationEnergyMaintenance 27951.117202759
scalar OsgEarthNet.uav[40] utilizationEnergyCharge 86996.133789062
scalar OsgEarthNet.uav[40] utilizationEnergyOverdrawMission 0
scalar OsgEarthNet.uav[40] utilizationEnergyOverdrawMaintenance 0
scalar OsgEarthNet.uav[40] utilizationCountMissions 19
scalar OsgEarthNet.uav[40] utilizationCountManeuversMission 198
scalar OsgEarthNet.uav[40] utilizationCountManeuversMaintenance 38
scalar OsgEarthNet.uav[40] utilizationCountChargeState 19
scalar OsgEarthNet.uav[40] utilizationCountOverdrawnAfterMission 0
scalar OsgEarthNet.uav[40] utilizationCountIdleState 20
scalar OsgEarthNet.uav[40] utilizationFail 0
scalar OsgEarthNet.uav[40] simulationTime 259200
scalar OsgEarthNet.uav[41] utilizationSecMission 545.05972348896
scalar OsgEarthNet.uav[41] utilizationSecMaintenance 504.59684722431
scalar OsgEarthNet.uav[41] utilizationSecCharge 3740
scalar OsgEarthNet.uav[41] utilizationSecIdle 254410.34242929
scalar OsgEarthNet.uav[41] utilizationEnergyMission 2596.7284393311
scalar OsgEarthNet.uav[41] utilizationEnergyMaintenance 2209.7625846863
scalar OsgEarthNet.uav[41] utilizationEnergyCharge 4717.33203125
scalar OsgEarthNet.uav[41] utilizationEnergyOverdrawMission 0
scalar OsgEarthNet.uav[41] utilizationEnergyOverdrawMaintenance 0
scalar OsgEarthNet.uav[41] utilizationCountMissions 1
scalar OsgEarthNet.uav[41] utilizationCountManeuversMission 9
scalar OsgEarthNet.uav[41] utilizationCountManeuversMaintenance 2
scalar OsgEarthNet.uav[41] utilizationCountChargeState 1
scalar OsgEarthNet.uav[41] utilizationCountOverdrawnAfterMission 0
scalar OsgEarthNet.uav[41] utilizationCountIdleState 2
scalar OsgEarthNet.uav[41] utilizationFail 0
scalar OsgEarthNet.uav[41] simulationTime 259200
scalar OsgEarthNet.uav[42] utilizationSecMission 750.20472747826
scalar OsgEarthNet.uav[42] utilizationSecMaintenance 255.5651663541
scalar OsgEarthNet.uav[42] utilizationSecCharge 3590
scalar OsgEarthNet.uav[42] utilizationSecIdle 254604.22910617
scalar OsgEarthNet.uav[42] utilizationEnergyMission 3250.1118621826
scalar OsgEarthNet.uav[42] utilizationEnergyMaintenance 1201.9397087097
scalar OsgEarthNet.uav[42] utilizationEnergyCharge 4452.0522460938
scalar OsgEarthNet.uav[42] utilizationEnergyOverdrawMission 0
scalar OsgEarthNet.uav[42] utilizationEnergyOverdrawMaintenance 0
scalar OsgEarthNet.uav[42] utilizationCountMissions 1
scalar OsgEarthNet.uav[42] utilizationCountManeuversMission 11
scalar OsgEarthNet.uav[42] utilizationCountManeuversMaintenance 2
scalar OsgEarthNet.uav[42] utilizationCountChargeState 1
scalar OsgEarthNet.uav[42] utilizationCountOverdrawnAfterMission 0
scalar OsgEarthNet.uav[42] utilizationCountIdleState 2
scalar OsgEarthNet.uav[42] utilizationFail 0
scalar OsgEarthNet.uav[42] simulationTime 259200
scalar OsgEarthNet.uav[43] utilizationSecMission 735.14326557473
scalar OsgEarthNet.uav[43] utilizationSecMaintenance 350.53687742834
scalar OsgEarthNet.uav[43] utilizationSecCharge 3900
scalar OsgEarthNet.uav[43] utilizationSecIdle 254214.318857
scalar OsgEarthNet.uav[43] utilizationEnergyMission 3261.0877227783
scalar OsgEarthNet.uav[43] utilizationEnergyMaintenance 1788.1408309936
scalar OsgEarthNet.uav[43] utilizationEnergyCharge 5007.29296875
scalar OsgEarthNet.uav[43] utilizationEnergyOverdrawMission 0
scalar OsgEarthNet.uav[43] utilizationEnergyOverdrawMaintenance 0
scalar OsgEarthNet.uav[43] utilizationCountMissions 1
scalar OsgEarthNet.uav[43] utilizationCountManeuversMission 11
scalar OsgEarthNet.uav[43] utilizationCountManeuversMaintenance 2
scalar OsgEarthNet.uav[43] utilizationCountChargeState 1
scalar OsgEarthNet.uav[43] utilizationCountOverdrawnAfterMission 0
scalar OsgEarthNet.uav[43] utilizationCountIdleState 2
scalar OsgEarthNet.uav[43] utilizationFail 0
scalar OsgEarthNet.uav[43] simulationTime 259200
scalar OsgEarthNet.uav[44] utilizationSecMission 694.00169469977
scalar OsgEarthNet.uav[44] utilizationSecMaintenance 349.76607937241
scalar OsgEarthNet.uav[44] utilizationSecCharge 3660
scalar OsgEarthNet.uav[44] utilizationSecIdle 254496.23122593
scalar OsgEarthNet.uav[44] utilizationEnergyMission 3066.459022522
scalar OsgEarthNet.uav[44] utilizationEnergyMaintenance 1522.4801750183
scalar OsgEarthNet.uav[44] utilizationEnergyCharge 4588.9404296875
scalar OsgEarthNet.uav[44] utilizationEnergyOverdrawMission 0
scalar OsgEarthNet.uav[44] utilizationEnergyOverdrawMaintenance 0
scalar OsgEarthNet.uav[44] utilizationCountMissions 1
scalar OsgEarthNet.uav[44] utilizationCountManeuversMission 13
scalar OsgEarthNet.uav[44] utilizationCountManeuversMaintenance 2
scalar OsgEarthNet.uav[44] utilizationCountChargeState 1
scalar OsgEarthNet.uav[44] utilizationCountOverdrawnAfterMission 0
scalar OsgEarthNet.uav[44] utilizationCountIdleState 2
scalar OsgEarthNet.uav[44] utilizationFail 0
scalar OsgEarthNet.uav[44] simulationTime 259200
scalar OsgEarthNet.uav[45] utilizationSecMission 621.17604176187
scalar OsgEarthNet.uav[45] utilizationSecMaintenance 313.76167006775
scalar OsgEarthNet.uav[45] utilizationSecCharge 3610
scalar OsgEarthNet.uav[45] utilizationSecIdle 254655.06128817
scalar OsgEarthNet.uav[45] utilizationEnergyMission 2992.0838012695
scalar OsgEarthNet.uav[45] utilizationEnergyMaintenance 1469.9936027527
scalar OsgEarthNet.uav[45] utilizationEnergyCharge 4462.0747070312
scalar OsgEarthNet.uav[45] utilizationEnergyOverdrawMission 0
scalar OsgEarthNet.uav[45] utilizationEnergyOverdrawMaintenance 0
scalar OsgEarthNet.uav[45] utilizationCountMissions 1
scalar OsgEarthNet.uav[45] utilizationCountManeuversMission 12
scalar OsgEarthNet.uav[45] utilizationCountManeuversMaintenance 2
scalar OsgEarthNet.uav[45] utilizationCountChargeState 1
scalar OsgEarthNet.uav[45] utilizationCountOverdrawnAfterMission 0
scalar OsgEarthNet.uav[45] utilizationCountIdleState 2
scalar OsgEarthNet.uav[45] utilizationFail 0
scalar OsgEarthNet.uav[45] simulationTime 259200
scalar OsgEarthNet.uav[46] utilizationSecMission 30240.935816806
scalar OsgEarthNet.uav[46] utilizationSecMaintenance 18655.056672154
scalar OsgEarthNet.uav[46] utilizationSecCharge 178572.00651104
scalar OsgEarthNet.uav[46] utilizationSecIdle 31732
scalar OsgEarthNet.uav[46] utilizationEnergyMission 139892.51362228
scalar OsgEarthNet.uav[46] utilizationEnergyMaintenance 86239.313259125
scalar OsgEarthNet.uav[46] utilizationEnergyCharge 225204.62158203
scalar OsgEarthNet.uav[46] utilizationEnergyOverdrawMission 0
scalar OsgEarthNet.uav[46] utilizationEnergyOverdrawMaintenance 0
scalar OsgEarthNet.uav[46] utilizationCountMissions 49
scalar OsgEarthNet.uav[46] utilizationCountManeuversMission 487
scalar OsgEarthNet.uav[46] utilizationCountManeuversMaintenance 97
scalar OsgEarthNet.uav[46] utilizationCountChargeState 49
scalar OsgEarthNet.uav[46] utilizationCountOverdrawnAfterMission 0
scalar OsgEarthNet.uav[46] utilizationCountIdleState 49
scalar OsgEarthNet.uav[46] utilizationFail 0
scalar OsgEarthNet.uav[46] simulationTime 259200
scalar OsgEarthNet.uav[47] utilizationSecMission 682.94783150361
scalar OsgEarthNet.uav[47] utilizationSecMaintenance 298.15269315943
scalar OsgEarthNet.uav[47] utilizationSecCharge 3590
scalar OsgEarthNet.uav[47] utilizationSecIdle 254628.89847534
scalar OsgEarthNet.uav[47] utilizationEnergyMission 3125.0361328125
scalar OsgEarthNet.uav[47] utilizationEnergyMaintenance 1371.4848556519
scalar OsgEarthNet.uav[47] utilizationEnergyCharge 4496.5200195312
scalar OsgEarthNet.uav[47] utilizationEnergyOverdrawMission 0
scalar OsgEarthNet.uav[47] utilizationEnergyOverdrawMaintenance 0
scalar OsgEarthNet.uav[47] utilizationCountMissions 1
scalar OsgEarthNet.uav[47] utilizationCountManeuversMission 12
scalar OsgEarthNet.uav[47] utilizationCountManeuversMaintenance 2
scalar OsgEarthNet.uav[47] utilizationCountChargeState 1
scalar OsgEarthNet.uav[47] utilizationCountOverdrawnAfterMission 0
scalar OsgEarthNet.uav[47] utilizationCountIdleState 2
scalar OsgEarthNet.uav[47] utilizationFail 0
scalar OsgEarthNet.uav[47] simulationTime 259200
scalar OsgEarthNet.uav[48] utilizationSecMission 4632.1371336489
scalar OsgEarthNet.uav[48] utilizationSecMaintenance 2422.1872500437
scalar OsgEarthNet.uav[48] utilizationSecCharge 25860
scalar OsgEarthNet.uav[48] utilizationSecIdle 226285.67461631
scalar OsgEarthNet.uav[48] utilizationEnergyMission 21477.100955963
scalar OsgEarthNet.uav[48] utilizationEnergyMaintenance 11151.159240723
scalar OsgEarthNet.uav[48] utilizationEnergyCharge 32619.316894531
scalar OsgEarthNet.uav[48] utilizationEnergyOverdrawMission 0
scalar OsgEarthNet.uav[48] utilizationEnergyOverdrawMaintenance 0
scalar OsgEarthNet.uav[48] utilizationCountMissions 7
scalar OsgEarthNet.uav[48] utilizationCountManeuversMission 81
scalar OsgEarthNet.uav[48] utilizationCountManeuversMaintenance 14
scalar OsgEarthNet.uav[48] utilizationCountChargeState 7
scalar OsgEarthNet.uav[48] utilizationCountOverdrawnAfterMission 0
scalar OsgEarthNet.uav[48] utilizationCountIdleState 8
scalar OsgEarthNet.uav[48] utilizationFail 0
scalar OsgEarthNet.uav[48] simulationTime 259200
scalar OsgEarthNet.uav[49] utilizationSecMission 15869.659174492
scalar OsgEarthNet.uav[49] utilizationSecMaintenance 10775.21917363
scalar OsgEarthNet.uav[49] utilizationSecCharge 97987.345460387
scalar OsgEarthNet.uav[49] utilizationSecIdle 134567.77519149
scalar OsgEarthNet.uav[49] utilizationEnergyMission 73810.971099854
scalar OsgEarthNet.uav[49] utilizationEnergyMaintenance 49921.115451813
scalar OsgEarthNet.uav[49] utilizationEnergyCharge 122963.49853516
scalar OsgEarthNet.uav[49] utilizationEnergyOverdrawMission 0
scalar OsgEarthNet.uav[49] utilizationEnergyOverdrawMaintenance 0
scalar OsgEarthNet.uav[49] utilizationCountMissions 28
scalar OsgEarthNet.uav[49] utilizationCountManeuversMission 258
scalar OsgEarthNet.uav[49] utilizationCountManeuversMaintenance 56
scalar OsgEarthNet.uav[49] utilizationCountChargeState 28
scalar OsgEarthNet.uav[49] utilizationCountOverdrawnAfterMission 0
scalar OsgEarthNet.uav[49] utilizationCountIdleState 28
scalar OsgEarthNet.uav[49] utilizationFail 0
scalar OsgEarthNet.uav[49] simulationTime 259200
scalar OsgEarthNet.uav[50] utilizationSecMission 23158.838377361
scalar OsgEarthNet.uav[50] utilizationSecMaintenance 16532.146951032
scalar OsgEarthNet.uav[50] utilizationSecCharge 146522.49078451
scalar OsgEarthNet.uav[50] utilizationSecIdle 72986.522887101
scalar OsgEarthNet.uav[50] utilizationEnergyMission 107469.32260895
scalar OsgEarthNet.uav[50] utilizationEnergyMaintenance 77225.071117401
scalar OsgEarthNet.uav[50] utilizationEnergyCharge 184665.16894531
scalar OsgEarthNet.uav[50] utilizationEnergyOverdrawMission 0
scalar OsgEarthNet.uav[50] utilizationEnergyOverdrawMaintenance 0
scalar OsgEarthNet.uav[50] utilizationCountMissions 40
scalar OsgEarthNet.uav[50] utilizationCountManeuversMission 371
scalar OsgEarthNet.uav[50] utilizationCountManeuversMaintenance 80
scalar OsgEarthNet.uav[50] utilizationCountChargeState 40
scalar OsgEarthNet.uav[50] utilizationCountOverdrawnAfterMission 0
scalar OsgEarthNet.uav[50] utilizationCountIdleState 40
scalar OsgEarthNet.uav[50] utilizationFail 0
scalar OsgEarthNet.uav[50] simulationTime 259200
scalar OsgEarthNet.uav[51] utilizationSecMission 737.00098997322
scalar OsgEarthNet.uav[51] utilizationSecMaintenance 313.26867752287
scalar OsgEarthNet.uav[51] utilizationSecCharge 3620
scalar OsgEarthNet.uav[51] utilizationSecIdle 254529.7293325
scalar OsgEarthNet.uav[51] utilizationEnergyMission 3172.6856613159
scalar OsgEarthNet.uav[51] utilizationEnergyMaintenance 1311.6624259949
scalar OsgEarthNet.uav[51] utilizationEnergyCharge 4484.349609375
scalar OsgEarthNet.uav[51] utilizationEnergyOverdrawMission 0
scalar OsgEarthNet.uav[51] utilizationEnergyOverdrawMaintenance 0
scalar OsgEarthNet.uav[51] utilizationCountMissions 1
scalar OsgEarthNet.uav[51] utilizationCountManeuversMission 14
scalar OsgEarthNet.uav[51] utilizationCountManeuversMaintenance 2
scalar OsgEarthNet.uav[51] utilizationCountChargeState 1
scalar OsgEarthNet.uav[51] utilizationCountOverdrawnAfterMission 0
scalar OsgEarthNet.uav[51] utilizationCountIdleState 2
scalar OsgEarthNet.uav[51] utilizationFail 0
scalar OsgEarthNet.uav[51] simulationTime 259200
scalar OsgEarthNet.uav[52] utilizationSecMission 750.20472747826
scalar OsgEarthNet.uav[52] utilizationSecMaintenance 255.5651663541
scalar OsgEarthNet.uav[52] utilizationSecCharge 3740
scalar OsgEarthNet.uav[52] utilizationSecIdle 254454.22910617
scalar OsgEarthNet.uav[52] utilizationEnergyMission 3534.2988891602
scalar OsgEarthNet.uav[52] utilizationEnergyMaintenance 1179.8351554871
scalar OsgEarthNet.uav[52] utilizationEnergyCharge 4714.1328125
scalar OsgEarthNet.uav[52] utilizationEnergyOverdrawMission 0
scalar OsgEarthNet.uav[52] utilizationEnergyOverdrawMaintenance 0
scalar OsgEarthNet.uav[52] utilizationCountMissions 1
scalar OsgEarthNet.uav[52] utilizationCountManeuversMission 11
scalar OsgEarthNet.uav[52] utilizationCountManeuversMaintenance 2
scalar OsgEarthNet.uav[52] utilizationCountChargeState 1
scalar OsgEarthNet.uav[52] utilizationCountOverdrawnAfterMission 0
scalar OsgEarthNet.uav[52] utilizationCountIdleState 2
scalar OsgEarthNet.uav[52] utilizationFail 0
scalar OsgEarthNet.uav[52] simulationTime 259200
scalar OsgEarthNet.uav[53] utilizationSecMission 760.62515258028
scalar OsgEarthNet.uav[53] utilizationSecMaintenance 202.91610409653
scalar OsgEarthNet.uav[53] utilizationSecCharge 3550
scalar OsgEarthNet.uav[53] utilizationSecIdle 254686.45774332
scalar OsgEarthNet.uav[53] utilizationEnergyMission 3432.4338684082
scalar OsgEarthNet.uav[53] utilizationEnergyMaintenance 961.49477386474
scalar OsgEarthNet.uav[53] utilizationEnergyCharge 4378.0869140625
scalar OsgEarthNet.uav[53] utilizationEnergyOverdrawMission 0
scalar OsgEarthNet.uav[53] utilizationEnergyOverdrawMaintenance 0
scalar OsgEarthNet.uav[53] utilizationCountMissions 1
scalar OsgEarthNet.uav[53] utilizationCountManeuversMission 12
scalar OsgEarthNet.uav[53] utilizationCountManeuversMaintenance 2
scalar OsgEarthNet.uav[53] utilizationCountChargeState 1
scalar OsgEarthNet.uav[53] utilizationCountOverdrawnAfterMission 0
scalar OsgEarthNet.uav[53] utilizationCountIdleState 2
scalar OsgEarthNet.uav[53] utilizationFail 0
scalar OsgEarthNet.uav[53] simulationTime 259200
scalar OsgEarthNet.uav[54] utilizationSecMission 4885.5211608032
scalar OsgEarthNet.uav[54] utilizationSecMaintenance 3147.6068972613
scalar OsgEarthNet.uav[54] utilizationSecCharge 29390
scalar OsgEarthNet.uav[54] utilizationSecIdle 221776.87094194
scalar OsgEarthNet.uav[54] utilizationEnergyMission 22332.504760742
scalar OsgEarthNet.uav[54] utilizationEnergyMaintenance 14573.706512451
scalar OsgEarthNet.uav[54] utilizationEnergyCharge 36849.420898438
scalar OsgEarthNet.uav[54] utilizationEnergyOverdrawMission 0
scalar OsgEarthNet.uav[54] utilizationEnergyOverdrawMaintenance 0
scalar OsgEarthNet.uav[54] utilizationCountMissions 8
scalar OsgEarthNet.uav[54] utilizationCountManeuversMission 78
scalar OsgEarthNet.uav[54] utilizationCountManeuversMaintenance 16
scalar OsgEarthNet.uav[54] utilizationCountChargeState 8
scalar OsgEarthNet.uav[54] utilizationCountOverdrawnAfterMission 0
scalar OsgEarthNet.uav[54] utilizationCountIdleState 9
scalar OsgEarthNet.uav[54] utilizationFail 0
scalar OsgEarthNet.uav[54] simulationTime 259200
scalar OsgEarthNet.uav[55] utilizationSecMission 27782.502164805
scalar OsgEarthNet.uav[55] utilizationSecMaintenance 21650.174799645
scalar OsgEarthNet.uav[55] utilizationSecCharge 178065.32203555
scalar OsgEarthNet.uav[55] utilizationSecIdle 31702
scalar OsgEarthNet.uav[55] utilizationEnergyMission 127919.79637396
scalar OsgEarthNet.uav[55] utilizationEnergyMaintenance 99520.458343506
scalar OsgEarthNet.uav[55] utilizationEnergyCharge 223243.02575684
scalar OsgEarthNet.uav[55] utilizationEnergyOverdrawMission 0
scalar OsgEarthNet.uav[55] utilizationEnergyOverdrawMaintenance 0
scalar OsgEarthNet.uav[55] utilizationCountMissions 50
scalar OsgEarthNet.uav[55] utilizationCountManeuversMission 451
scalar OsgEarthNet.uav[55] utilizationCountManeuversMaintenance 99
scalar OsgEarthNet.uav[55] utilizationCountChargeState 50
scalar OsgEarthNet.uav[55] utilizationCountOverdrawnAfterMission 0
scalar OsgEarthNet.uav[55] utilizationCountIdleState 50
scalar OsgEarthNet.uav[55] utilizationFail 0
scalar OsgEarthNet.uav[55] simulationTime 259200
scalar OsgEarthNet.uav[56] utilizationSecMission 760.62515258028
scalar OsgEarthNet.uav[56] utilizationSecMaintenance 202.91610409653
scalar OsgEarthNet.uav[56] utilizationSecCharge 3710
scalar OsgEarthNet.uav[56] utilizationSecIdle 254526.45774332
scalar OsgEarthNet.uav[56] utilizationEnergyMission 3642.1075592041
scalar OsgEarthNet.uav[56] utilizationEnergyMaintenance 973.69283294677
scalar OsgEarthNet.uav[56] utilizationEnergyCharge 4657.2373046875
scalar OsgEarthNet.uav[56] utilizationEnergyOverdrawMission 0
scalar OsgEarthNet.uav[56] utilizationEnergyOverdrawMaintenance 0
scalar OsgEarthNet.uav[56] utilizationCountMissions 1
scalar OsgEarthNet.uav[56] utilizationCountManeuversMission 12
scalar OsgEarthNet.uav[56] utilizationCountManeuversMaintenance 2
scalar OsgEarthNet.uav[56] utilizationCountChargeState 1
scalar OsgEarthNet.uav[56] utilizationCountOverdrawnAfterMission 0
scalar OsgEarthNet.uav[56] utilizationCountIdleState 2
scalar OsgEarthNet.uav[56] utilizationFail 0
scalar OsgEarthNet.uav[56] simulationTime 259200
scalar OsgEarthNet.uav[57] utilizationSecMission 475.70932794513
scalar OsgEarthNet.uav[57] utilizationSecMaintenance 417.89319261334
scalar OsgEarthNet.uav[57] utilizationSecCharge 3310
scalar OsgEarthNet.uav[57] utilizationSecIdle 254996.39647944
scalar OsgEarthNet.uav[57] utilizationEnergyMission 1942.8863372803
scalar OsgEarthNet.uav[57] utilizationEnergyMaintenance 2035.6974716187
scalar OsgEarthNet.uav[57] utilizationEnergyCharge 3978.5837402344
scalar OsgEarthNet.uav[57] utilizationEnergyOverdrawMission 0
scalar OsgEarthNet.uav[57] utilizationEnergyOverdrawMaintenance 0
scalar OsgEarthNet.uav[57] utilizationCountMissions 1
scalar OsgEarthNet.uav[57] utilizationCountManeuversMission 9
scalar OsgEarthNet.uav[57] utilizationCountManeuversMaintenance 2
scalar OsgEarthNet.uav[57] utilizationCountChargeState 1
scalar OsgEarthNet.uav[57] utilizationCountOverdrawnAfterMission 0
scalar OsgEarthNet.uav[57] utilizationCountIdleState 2
scalar OsgEarthNet.uav[57] utilizationFail 0
scalar OsgEarthNet.uav[57] simulationTime 259200
scalar OsgEarthNet.uav[58] utilizationSecMission 19541.312482084
scalar OsgEarthNet.uav[58] utilizationSecMaintenance 15803.230864513
scalar OsgEarthNet.uav[58] utilizationSecCharge 128670
scalar OsgEarthNet.uav[58] utilizationSecIdle 95185.455653403
scalar OsgEarthNet.uav[58] utilizationEnergyMission 91789.116481781
scalar OsgEarthNet.uav[58] utilizationEnergyMaintenance 74005.074328623
scalar OsgEarthNet.uav[58] utilizationEnergyCharge 161932.1015625
scalar OsgEarthNet.uav[58] utilizationEnergyOverdrawMission 0
scalar OsgEarthNet.uav[58] utilizationEnergyOverdrawMaintenance 0
scalar OsgEarthNet.uav[58] utilizationCountMissions 36
scalar OsgEarthNet.uav[58] utilizationCountManeuversMission 335
scalar OsgEarthNet.uav[58] utilizationCountManeuversMaintenance 72
scalar OsgEarthNet.uav[58] utilizationCountChargeState 35
scalar OsgEarthNet.uav[58] utilizationCountOverdrawnAfterMission 0
scalar OsgEarthNet.uav[58] utilizationCountIdleState 36
scalar OsgEarthNet.uav[58] utilizationFail 0
scalar OsgEarthNet.uav[58] simulationTime 259200
scalar OsgEarthNet.uav[59] utilizationSecMission 23960.389190434
scalar OsgEarthNet.uav[59] utilizationSecMaintenance 16909.677241956
scalar OsgEarthNet.uav[59] utilizationSecCharge 151384.0358327
scalar OsgEarthNet.uav[59] utilizationSecIdle 66945.896734907
scalar OsgEarthNet.uav[59] utilizationEnergyMission 111196.97449493
scalar OsgEarthNet.uav[59] utilizationEnergyMaintenance 78349.266628265
scalar OsgEarthNet.uav[59] utilizationEnergyCharge 189374.11083984
scalar OsgEarthNet.uav[59] utilizationEnergyOverdrawMission 0
scalar OsgEarthNet.uav[59] utilizationEnergyOverdrawMaintenance 0
scalar OsgEarthNet.uav[59] utilizationCountMissions 42
scalar OsgEarthNet.uav[59] utilizationCountManeuversMission 389
scalar OsgEarthNet.uav[59] utilizationCountManeuversMaintenance 84
scalar OsgEarthNet.uav[59] utilizationCountChargeState 42
scalar OsgEarthNet.uav[59] utilizationCountOverdrawnAfterMission 0
scalar OsgEarthNet.uav[59] utilizationCountIdleState 42
scalar OsgEarthNet.uav[59] utilizationFail 0
scalar OsgEarthNet.uav[59] simulationTime 259200
scalar OsgEarthNet.uav[60] utilizationSecMission 25777.724969843
scalar OsgEarthNet.uav[60] utilizationSecMaintenance 18277.629599639
scalar OsgEarthNet.uav[60] utilizationSecCharge 162900
scalar OsgEarthNet.uav[60] utilizationSecIdle 52244.644430518
scalar OsgEarthNet.uav[60] utilizationEnergyMission 119673.99796295
scalar OsgEarthNet.uav[60] utilizationEnergyMaintenance 84280.422639235
scalar OsgEarthNet.uav[60] utilizationEnergyCharge 204247.47167969
scalar OsgEarthNet.uav[60] utilizationEnergyOverdrawMission 0
scalar OsgEarthNet.uav[60] utilizationEnergyOverdrawMaintenance 0
scalar OsgEarthNet.uav[60] utilizationCountMissions 45
scalar OsgEarthNet.uav[60] utilizationCountManeuversMission 413
scalar OsgEarthNet.uav[60] utilizationCountManeuversMaintenance 91
scalar OsgEarthNet.uav[60] utilizationCountChargeState 45
scalar OsgEarthNet.uav[60] utilizationCountOverdrawnAfterMission 0
scalar OsgEarthNet.uav[60] utilizationCountIdleState 46
scalar OsgEarthNet.uav[60] utilizationFail 0
scalar OsgEarthNet.uav[60] simulationTime 259200
scalar OsgEarthNet.uav[61] utilizationSecMission 24463.740271602
scalar OsgEarthNet.uav[61] utilizationSecMaintenance 17721.388736598
scalar OsgEarthNet.uav[61] utilizationSecCharge 154921.11099114
scalar OsgEarthNet.uav[61] utilizationSecIdle 62093.75900066
scalar OsgEarthNet.uav[61] utilizationEnergyMission 112627.67344666
scalar OsgEarthNet.uav[61] utilizationEnergyMaintenance 82087.49969101
scalar OsgEarthNet.uav[61] utilizationEnergyCharge 194814.88964844
scalar OsgEarthNet.uav[61] utilizationEnergyOverdrawMission 0
scalar OsgEarthNet.uav[61] utilizationEnergyOverdrawMaintenance 0
scalar OsgEarthNet.uav[61] utilizationCountMissions 43
scalar OsgEarthNet.uav[61] utilizationCountManeuversMission 405
scalar OsgEarthNet.uav[61] utilizationCountManeuversMaintenance 86
scalar OsgEarthNet.uav[61] utilizationCountChargeState 43
scalar OsgEarthNet.uav[61] utilizationCountOverdrawnAfterMission 0
scalar OsgEarthNet.uav[61] utilizationCountIdleState 43
scalar OsgEarthNet.uav[61] utilizationFail 0
scalar OsgEarthNet.uav[61] simulationTime 259200
scalar OsgEarthNet.uav[62] utilizationSecMission 28021.939706609
scalar OsgEarthNet.uav[62] utilizationSecMaintenance 18930.922378658
scalar OsgEarthNet.uav[62] utilizationSecCharge 172490
scalar OsgEarthNet.uav[62] utilizationSecIdle 39757.136914733
scalar OsgEarthNet.uav[62] utilizationEnergyMission 128025.17835999
scalar OsgEarthNet.uav[62] utilizationEnergyMaintenance 87263.699920654
scalar OsgEarthNet.uav[62] utilizationEnergyCharge 215124.30664062
scalar OsgEarthNet.uav[62] utilizationEnergyOverdrawMission 0
scalar OsgEarthNet.uav[62] utilizationEnergyOverdrawMaintenance 0
scalar OsgEarthNet.uav[62] utilizationCountMissions 48
scalar OsgEarthNet.uav[62] utilizationCountManeuversMission 446
scalar OsgEarthNet.uav[62] utilizationCountManeuversMaintenance 96
scalar OsgEarthNet.uav[62] utilizationCountChargeState 48
scalar OsgEarthNet.uav[62] utilizationCountOverdrawnAfterMission 0
scalar OsgEarthNet.uav[62] utilizationCountIdleState 49
scalar OsgEarthNet.uav[62] utilizationFail 0
scalar OsgEarthNet.uav[62] simulationTime 259200
scalar OsgEarthNet.uav[63] utilizationSecMission 411.06832849244
scalar OsgEarthNet.uav[63] utilizationSecMaintenance 618.13859636393
scalar OsgEarthNet.uav[63] utilizationSecCharge 3680
scalar OsgEarthNet.uav[63] utilizationSecIdle 254490.79207514
scalar OsgEarthNet.uav[63] utilizationEnergyMission 1801.5904159546
scalar OsgEarthNet.uav[63] utilizationEnergyMaintenance 2802.7529411316
scalar OsgEarthNet.uav[63] utilizationEnergyCharge 4604.3413085938
scalar OsgEarthNet.uav[63] utilizationEnergyOverdrawMission 0
scalar OsgEarthNet.uav[63] utilizationEnergyOverdrawMaintenance 0
scalar OsgEarthNet.uav[63] utilizationCountMissions 1
scalar OsgEarthNet.uav[63] utilizationCountManeuversMission 7
scalar OsgEarthNet.uav[63] utilizationCountManeuversMaintenance 2
scalar OsgEarthNet.uav[63] utilizationCountChargeState 1
scalar OsgEarthNet.uav[63] utilizationCountOverdrawnAfterMission 0
scalar OsgEarthNet.uav[63] utilizationCountIdleState 2
scalar OsgEarthNet.uav[63] utilizationFail 0
scalar OsgEarthNet.uav[63] simulationTime 259200
scalar OsgEarthNet.uav[64] utilizationSecMission 29112.565844397
scalar OsgEarthNet.uav[64] utilizationSecMaintenance 18903.53468439
scalar OsgEarthNet.uav[64] utilizationSecCharge 175710
scalar OsgEarthNet.uav[64] utilizationSecIdle 35473.898471214
scalar OsgEarthNet.uav[64] utilizationEnergyMission 133444.37381744
scalar OsgEarthNet.uav[64] utilizationEnergyMaintenance 88323.420436859
scalar OsgEarthNet.uav[64] utilizationEnergyCharge 221018.75610352
scalar OsgEarthNet.uav[64] utilizationEnergyOverdrawMission 0
scalar OsgEarthNet.uav[64] utilizationEnergyOverdrawMaintenance 0
scalar OsgEarthNet.uav[64] utilizationCountMissions 48
scalar OsgEarthNet.uav[64] utilizationCountManeuversMission 490
scalar OsgEarthNet.uav[64] utilizationCountManeuversMaintenance 96
scalar OsgEarthNet.uav[64] utilizationCountChargeState 48
scalar OsgEarthNet.uav[64] utilizationCountOverdrawnAfterMission 0
scalar OsgEarthNet.uav[64] utilizationCountIdleState 49
scalar OsgEarthNet.uav[64] utilizationFail 0
scalar OsgEarthNet.uav[64] simulationTime 259200
scalar OsgEarthNet.uav[65] utilizationSecMission 5720.4053710726
scalar OsgEarthNet.uav[65] utilizationSecMaintenance 3274.7530427544
scalar OsgEarthNet.uav[65] utilizationSecCharge 33460
scalar OsgEarthNet.uav[65] utilizationSecIdle 216744.84058617
[...]
scalar OsgEarthNet.uav[71] utilizationCountMissions 29
scalar OsgEarthNet.uav[71] utilizationCountManeuversMission 260
scalar OsgEarthNet.uav[71] utilizationCountManeuversMaintenance 58
scalar OsgEarthNet.uav[71] utilizationCountChargeState 29
scalar OsgEarthNet.uav[71] utilizationCountOverdrawnAfterMission 0
scalar OsgEarthNet.uav[71] utilizationCountIdleState 29
scalar OsgEarthNet.uav[71] utilizationFail 0
scalar OsgEarthNet.uav[71] simulationTime 259200
scalar OsgEarthNet.uav[72] utilizationSecMission 3739.2166910597
scalar OsgEarthNet.uav[72] utilizationSecMaintenance 3191.0555825305
scalar OsgEarthNet.uav[72] utilizationSecCharge 25650
scalar OsgEarthNet.uav[72] utilizationSecIdle 226619.72672641
scalar OsgEarthNet.uav[72] utilizationEnergyMission 17015.915481567
scalar OsgEarthNet.uav[72] utilizationEnergyMaintenance 15248.956928253
scalar OsgEarthNet.uav[72] utilizationEnergyCharge 32264.875976562
scalar OsgEarthNet.uav[72] utilizationEnergyOverdrawMission 0
scalar OsgEarthNet.uav[72] utilizationEnergyOverdrawMaintenance 0
scalar OsgEarthNet.uav[72] utilizationCountMissions 7
scalar OsgEarthNet.uav[72] utilizationCountManeuversMission 60
scalar OsgEarthNet.uav[72] utilizationCountManeuversMaintenance 14
scalar OsgEarthNet.uav[72] utilizationCountChargeState 7
scalar OsgEarthNet.uav[72] utilizationCountOverdrawnAfterMission 0
scalar OsgEarthNet.uav[72] utilizationCountIdleState 8
scalar OsgEarthNet.uav[72] utilizationFail 0
scalar OsgEarthNet.uav[72] simulationTime 259200
scalar OsgEarthNet.uav[73] utilizationSecMission 5511.3545354975
scalar OsgEarthNet.uav[73] utilizationSecMaintenance 3314.832621916
scalar OsgEarthNet.uav[73] utilizationSecCharge 32670
scalar OsgEarthNet.uav[73] utilizationSecIdle 217703.81184259
scalar OsgEarthNet.uav[73] utilizationEnergyMission 25773.122497559
scalar OsgEarthNet.uav[73] utilizationEnergyMaintenance 15405.188926697
scalar OsgEarthNet.uav[73] utilizationEnergyCharge 41061.326660156
scalar OsgEarthNet.uav[73] utilizationEnergyOverdrawMission 0
scalar OsgEarthNet.uav[73] utilizationEnergyOverdrawMaintenance 0
scalar OsgEarthNet.uav[73] utilizationCountMissions 9
scalar OsgEarthNet.uav[73] utilizationCountManeuversMission 89
scalar OsgEarthNet.uav[73] utilizationCountManeuversMaintenance 18
scalar OsgEarthNet.uav[73] utilizationCountChargeState 9
scalar OsgEarthNet.uav[73] utilizationCountOverdrawnAfterMission 0
scalar OsgEarthNet.uav[73] utilizationCountIdleState 10
scalar OsgEarthNet.uav[73] utilizationFail 0
scalar OsgEarthNet.uav[73] simulationTime 259200
scalar OsgEarthNet.uav[74] utilizationSecMission 9624.3829126101
scalar OsgEarthNet.uav[74] utilizationSecMaintenance 7032.1770661193
scalar OsgEarthNet.uav[74] utilizationSecCharge 61130
scalar OsgEarthNet.uav[74] utilizationSecIdle 181413.43902127
scalar OsgEarthNet.uav[74] utilizationEnergyMission 44404.343109131
scalar OsgEarthNet.uav[74] utilizationEnergyMaintenance 32613.052639008
scalar OsgEarthNet.uav[74] utilizationEnergyCharge 76641.756591797
scalar OsgEarthNet.uav[74] utilizationEnergyOverdrawMission 0
scalar OsgEarthNet.uav[74] utilizationEnergyOverdrawMaintenance 0
scalar OsgEarthNet.uav[74] utilizationCountMissions 17
scalar OsgEarthNet.uav[74] utilizationCountManeuversMission 159
scalar OsgEarthNet.uav[74] utilizationCountManeuversMaintenance 34
scalar OsgEarthNet.uav[74] utilizationCountChargeState 17
scalar OsgEarthNet.uav[74] utilizationCountOverdrawnAfterMission 0
scalar OsgEarthNet.uav[74] utilizationCountIdleState 17
scalar OsgEarthNet.uav[74] utilizationFail 0
scalar OsgEarthNet.uav[74] simulationTime 259200
scalar OsgEarthNet.uav[75] utilizationSecMission 14558.738558957
scalar OsgEarthNet.uav[75] utilizationSecMaintenance 12138.183718836
scalar OsgEarthNet.uav[75] utilizationSecCharge 96272.828441417
scalar OsgEarthNet.uav[75] utilizationSecIdle 136230.24828079
scalar OsgEarthNet.uav[75] utilizationEnergyMission 68182.71056366
scalar OsgEarthNet.uav[75] utilizationEnergyMaintenance 55913.776172638
scalar OsgEarthNet.uav[75] utilizationEnergyCharge 121701.45727539
scalar OsgEarthNet.uav[75] utilizationEnergyOverdrawMission 0
scalar OsgEarthNet.uav[75] utilizationEnergyOverdrawMaintenance 0
scalar OsgEarthNet.uav[75] utilizationCountMissions 27
scalar OsgEarthNet.uav[75] utilizationCountManeuversMission 233
scalar OsgEarthNet.uav[75] utilizationCountManeuversMaintenance 54
scalar OsgEarthNet.uav[75] utilizationCountChargeState 27
scalar OsgEarthNet.uav[75] utilizationCountOverdrawnAfterMission 0
scalar OsgEarthNet.uav[75] utilizationCountIdleState 27
scalar OsgEarthNet.uav[75] utilizationFail 0
scalar OsgEarthNet.uav[75] simulationTime 259200
scalar OsgEarthNet.uav[76] utilizationSecMission 27252.171498872
scalar OsgEarthNet.uav[76] utilizationSecMaintenance 20128.029885611
scalar OsgEarthNet.uav[76] utilizationSecCharge 171557.65779378
scalar OsgEarthNet.uav[76] utilizationSecIdle 40262.139821739
scalar OsgEarthNet.uav[76] utilizationEnergyMission 126046.93229294
scalar OsgEarthNet.uav[76] utilizationEnergyMaintenance 92686.847007751
scalar OsgEarthNet.uav[76] utilizationEnergyCharge 215429.89868164
scalar OsgEarthNet.uav[76] utilizationEnergyOverdrawMission 0
scalar OsgEarthNet.uav[76] utilizationEnergyOverdrawMaintenance 0
scalar OsgEarthNet.uav[76] utilizationCountMissions 48
scalar OsgEarthNet.uav[76] utilizationCountManeuversMission 445
scalar OsgEarthNet.uav[76] utilizationCountManeuversMaintenance 96
scalar OsgEarthNet.uav[76] utilizationCountChargeState 48
scalar OsgEarthNet.uav[76] utilizationCountOverdrawnAfterMission 0
scalar OsgEarthNet.uav[76] utilizationCountIdleState 47
scalar OsgEarthNet.uav[76] utilizationFail 0
scalar OsgEarthNet.uav[76] simulationTime 259200
scalar OsgEarthNet.uav[77] utilizationSecMission 25365.804684031
scalar OsgEarthNet.uav[77] utilizationSecMaintenance 18854.854157326
scalar OsgEarthNet.uav[77] utilizationSecCharge 164530
scalar OsgEarthNet.uav[77] utilizationSecIdle 50449.340158644
scalar OsgEarthNet.uav[77] utilizationEnergyMission 118215.11913681
scalar OsgEarthNet.uav[77] utilizationEnergyMaintenance 89019.137359619
scalar OsgEarthNet.uav[77] utilizationEnergyCharge 206872.3190918
scalar OsgEarthNet.uav[77] utilizationEnergyOverdrawMission 0
scalar OsgEarthNet.uav[77] utilizationEnergyOverdrawMaintenance 0
scalar OsgEarthNet.uav[77] utilizationCountMissions 45
scalar OsgEarthNet.uav[77] utilizationCountManeuversMission 415
scalar OsgEarthNet.uav[77] utilizationCountManeuversMaintenance 90
scalar OsgEarthNet.uav[77] utilizationCountChargeState 45
scalar OsgEarthNet.uav[77] utilizationCountOverdrawnAfterMission 0
scalar OsgEarthNet.uav[77] utilizationCountIdleState 46
scalar OsgEarthNet.uav[77] utilizationFail 0
scalar OsgEarthNet.uav[77] simulationTime 259200
scalar OsgEarthNet.uav[78] utilizationSecMission 21536.741933176
scalar OsgEarthNet.uav[78] utilizationSecMaintenance 15932.151947099
scalar OsgEarthNet.uav[78] utilizationSecCharge 137271.006204
scalar OsgEarthNet.uav[78] utilizationSecIdle 84460.098915727
scalar OsgEarthNet.uav[78] utilizationEnergyMission 100686.52625275
scalar OsgEarthNet.uav[78] utilizationEnergyMaintenance 74030.492649078
scalar OsgEarthNet.uav[78] utilizationEnergyCharge 174519.7668457
scalar OsgEarthNet.uav[78] utilizationEnergyOverdrawMission 0
scalar OsgEarthNet.uav[78] utilizationEnergyOverdrawMaintenance 0
scalar OsgEarthNet.uav[78] utilizationCountMissions 38
scalar OsgEarthNet.uav[78] utilizationCountManeuversMission 356
scalar OsgEarthNet.uav[78] utilizationCountManeuversMaintenance 76
scalar OsgEarthNet.uav[78] utilizationCountChargeState 38
scalar OsgEarthNet.uav[78] utilizationCountOverdrawnAfterMission 0
scalar OsgEarthNet.uav[78] utilizationCountIdleState 35
scalar OsgEarthNet.uav[78] utilizationFail 0
scalar OsgEarthNet.uav[78] simulationTime 259200
scalar OsgEarthNet.uav[79] utilizationSecMission 24745.297054237
scalar OsgEarthNet.uav[79] utilizationSecMaintenance 17752.54368891
scalar OsgEarthNet.uav[79] utilizationSecCharge 154760
scalar OsgEarthNet.uav[79] utilizationSecIdle 61942.158256853
scalar OsgEarthNet.uav[79] utilizationEnergyMission 113628.11729431
scalar OsgEarthNet.uav[79] utilizationEnergyMaintenance 81719.86782519
scalar OsgEarthNet.uav[79] utilizationEnergyCharge 194739.31518555
scalar OsgEarthNet.uav[79] utilizationEnergyOverdrawMission 0
scalar OsgEarthNet.uav[79] utilizationEnergyOverdrawMaintenance 0
scalar OsgEarthNet.uav[79] utilizationCountMissions 43
scalar OsgEarthNet.uav[79] utilizationCountManeuversMission 401
scalar OsgEarthNet.uav[79] utilizationCountManeuversMaintenance 87
scalar OsgEarthNet.uav[79] utilizationCountChargeState 43
scalar OsgEarthNet.uav[79] utilizationCountOverdrawnAfterMission 0
scalar OsgEarthNet.uav[79] utilizationCountIdleState 37
scalar OsgEarthNet.uav[79] utilizationFail 0
scalar OsgEarthNet.uav[79] simulationTime 259200
scalar OsgEarthNet.uav[80] utilizationSecMission 26528.169974276
scalar OsgEarthNet.uav[80] utilizationSecMaintenance 19566.558443012
scalar OsgEarthNet.uav[80] utilizationSecCharge 166750
scalar OsgEarthNet.uav[80] utilizationSecIdle 46355.270582712
scalar OsgEarthNet.uav[80] utilizationEnergyMission 123378.67832666
scalar OsgEarthNet.uav[80] utilizationEnergyMaintenance 90617.245281219
scalar OsgEarthNet.uav[80] utilizationEnergyCharge 209896.71630859
scalar OsgEarthNet.uav[80] utilizationEnergyOverdrawMission 0
scalar OsgEarthNet.uav[80] utilizationEnergyOverdrawMaintenance 0
scalar OsgEarthNet.uav[80] utilizationCountMissions 46
scalar OsgEarthNet.uav[80] utilizationCountManeuversMission 439
scalar OsgEarthNet.uav[80] utilizationCountManeuversMaintenance 93
scalar OsgEarthNet.uav[80] utilizationCountChargeState 46
scalar OsgEarthNet.uav[80] utilizationCountOverdrawnAfterMission 0
scalar OsgEarthNet.uav[80] utilizationCountIdleState 42
scalar OsgEarthNet.uav[80] utilizationFail 0
scalar OsgEarthNet.uav[80] simulationTime 259200
scalar OsgEarthNet.uav[81] utilizationSecMission 27296.663334752
scalar OsgEarthNet.uav[81] utilizationSecMaintenance 19263.729925884
scalar OsgEarthNet.uav[81] utilizationSecCharge 167499.58745645
scalar OsgEarthNet.uav[81] utilizationSecIdle 45140.018282913
scalar OsgEarthNet.uav[81] utilizationEnergyMission 125405.89414597
scalar OsgEarthNet.uav[81] utilizationEnergyMaintenance 89942.56004715
scalar OsgEarthNet.uav[81] utilizationEnergyCharge 211642.5211792
scalar OsgEarthNet.uav[81] utilizationEnergyOverdrawMission 0
scalar OsgEarthNet.uav[81] utilizationEnergyOverdrawMaintenance 0
scalar OsgEarthNet.uav[81] utilizationCountMissions 47
scalar OsgEarthNet.uav[81] utilizationCountManeuversMission 453
scalar OsgEarthNet.uav[81] utilizationCountManeuversMaintenance 94
scalar OsgEarthNet.uav[81] utilizationCountChargeState 47
scalar OsgEarthNet.uav[81] utilizationCountOverdrawnAfterMission 0
scalar OsgEarthNet.uav[81] utilizationCountIdleState 43
scalar OsgEarthNet.uav[81] utilizationFail 0
scalar OsgEarthNet.uav[81] simulationTime 259200
scalar OsgEarthNet.uav[82] utilizationSecMission 25797.735425691
scalar OsgEarthNet.uav[82] utilizationSecMaintenance 19683.452279211
scalar OsgEarthNet.uav[82] utilizationSecCharge 165558.0897643
scalar OsgEarthNet.uav[82] utilizationSecIdle 48160.721530797
scalar OsgEarthNet.uav[82] utilizationEnergyMission 120511.24346161
scalar OsgEarthNet.uav[82] utilizationEnergyMaintenance 90943.885051727
scalar OsgEarthNet.uav[82] utilizationEnergyCharge 208353.84509277
scalar OsgEarthNet.uav[82] utilizationEnergyOverdrawMission 0
scalar OsgEarthNet.uav[82] utilizationEnergyOverdrawMaintenance 0
scalar OsgEarthNet.uav[82] utilizationCountMissions 47
scalar OsgEarthNet.uav[82] utilizationCountManeuversMission 411
scalar OsgEarthNet.uav[82] utilizationCountManeuversMaintenance 94
scalar OsgEarthNet.uav[82] utilizationCountChargeState 47
scalar OsgEarthNet.uav[82] utilizationCountOverdrawnAfterMission 0
scalar OsgEarthNet.uav[82] utilizationCountIdleState 41
scalar OsgEarthNet.uav[82] utilizationFail 0
scalar OsgEarthNet.uav[82] simulationTime 259200
scalar OsgEarthNet.uav[83] utilizationSecMission 27967.542873218
scalar OsgEarthNet.uav[83] utilizationSecMaintenance 20547.498575412
scalar OsgEarthNet.uav[83] utilizationSecCharge 176344.40151416
scalar OsgEarthNet.uav[83] utilizationSecIdle 34340.556037205
scalar OsgEarthNet.uav[83] utilizationEnergyMission 130414.40075302
scalar OsgEarthNet.uav[83] utilizationEnergyMaintenance 94614.223670959
scalar OsgEarthNet.uav[83] utilizationEnergyCharge 222618.5925293
scalar OsgEarthNet.uav[83] utilizationEnergyOverdrawMission 0
scalar OsgEarthNet.uav[83] utilizationEnergyOverdrawMaintenance 0
scalar OsgEarthNet.uav[83] utilizationCountMissions 50
scalar OsgEarthNet.uav[83] utilizationCountManeuversMission 455
scalar OsgEarthNet.uav[83] utilizationCountManeuversMaintenance 100
scalar OsgEarthNet.uav[83] utilizationCountChargeState 50
scalar OsgEarthNet.uav[83] utilizationCountOverdrawnAfterMission 0
scalar OsgEarthNet.uav[83] utilizationCountIdleState 39
scalar OsgEarthNet.uav[83] utilizationFail 0
scalar OsgEarthNet.uav[83] simulationTime 259200
scalar OsgEarthNet.uav[84] utilizationSecMission 30159.115440411
scalar OsgEarthNet.uav[84] utilizationSecMaintenance 18730.642704178
scalar OsgEarthNet.uav[84] utilizationSecCharge 176853.77863652
scalar OsgEarthNet.uav[84] utilizationSecIdle 33456.462218889
scalar OsgEarthNet.uav[84] utilizationEnergyMission 138364.0209465
scalar OsgEarthNet.uav[84] utilizationEnergyMaintenance 85953.980331421
scalar OsgEarthNet.uav[84] utilizationEnergyCharge 224244.15673828
scalar OsgEarthNet.uav[84] utilizationEnergyOverdrawMission 0
scalar OsgEarthNet.uav[84] utilizationEnergyOverdrawMaintenance 0
scalar OsgEarthNet.uav[84] utilizationCountMissions 49
scalar OsgEarthNet.uav[84] utilizationCountManeuversMission 498
scalar OsgEarthNet.uav[84] utilizationCountManeuversMaintenance 98
scalar OsgEarthNet.uav[84] utilizationCountChargeState 49
scalar OsgEarthNet.uav[84] utilizationCountOverdrawnAfterMission 0
scalar OsgEarthNet.uav[84] utilizationCountIdleState 41
scalar OsgEarthNet.uav[84] utilizationFail 0
scalar OsgEarthNet.uav[84] simulationTime 259200
scalar OsgEarthNet.uav[85] utilizationSecMission 27530.497911457
scalar OsgEarthNet.uav[85] utilizationSecMaintenance 21429.522329299
scalar OsgEarthNet.uav[85] utilizationSecCharge 179204.50963213
scalar OsgEarthNet.uav[85] utilizationSecIdle 31035.469127111
scalar OsgEarthNet.uav[85] utilizationEnergyMission 127619.43073273
scalar OsgEarthNet.uav[85] utilizationEnergyMaintenance 97998.399013519
scalar OsgEarthNet.uav[85] utilizationEnergyCharge 225603.61010742
scalar OsgEarthNet.uav[85] utilizationEnergyOverdrawMission 0
scalar OsgEarthNet.uav[85] utilizationEnergyOverdrawMaintenance 0
scalar OsgEarthNet.uav[85] utilizationCountMissions 50
scalar OsgEarthNet.uav[85] utilizationCountManeuversMission 454
scalar OsgEarthNet.uav[85] utilizationCountManeuversMaintenance 100
scalar OsgEarthNet.uav[85] utilizationCountChargeState 50
scalar OsgEarthNet.uav[85] utilizationCountOverdrawnAfterMission 0
scalar OsgEarthNet.uav[85] utilizationCountIdleState 44
scalar OsgEarthNet.uav[85] utilizationFail 0
scalar OsgEarthNet.uav[85] simulationTime 259200
scalar OsgEarthNet.uav[86] utilizationSecMission 29421.060971956
scalar OsgEarthNet.uav[86] utilizationSecMaintenance 20734.798982505
scalar OsgEarthNet.uav[86] utilizationSecCharge 183360.75990534
scalar OsgEarthNet.uav[86] utilizationSecIdle 25683.379140197
scalar OsgEarthNet.uav[86] utilizationEnergyMission 135814.39378357
scalar OsgEarthNet.uav[86] utilizationEnergyMaintenance 96807.308853149
scalar OsgEarthNet.uav[86] utilizationEnergyCharge 232329.60742188
scalar OsgEarthNet.uav[86] utilizationEnergyOverdrawMission 0
scalar OsgEarthNet.uav[86] utilizationEnergyOverdrawMaintenance 0
scalar OsgEarthNet.uav[86] utilizationCountMissions 51
scalar OsgEarthNet.uav[86] utilizationCountManeuversMission 482
scalar OsgEarthNet.uav[86] utilizationCountManeuversMaintenance 102
scalar OsgEarthNet.uav[86] utilizationCountChargeState 51
scalar OsgEarthNet.uav[86] utilizationCountOverdrawnAfterMission 0
scalar OsgEarthNet.uav[86] utilizationCountIdleState 40
scalar OsgEarthNet.uav[86] utilizationFail 0
scalar OsgEarthNet.uav[86] simulationTime 259200
scalar OsgEarthNet.uav[87] utilizationSecMission 28756.303828771
scalar OsgEarthNet.uav[87] utilizationSecMaintenance 22625.342563966
scalar OsgEarthNet.uav[87] utilizationSecCharge 186170
scalar OsgEarthNet.uav[87] utilizationSecIdle 21648.352607263
scalar OsgEarthNet.uav[87] utilizationEnergyMission 132905.60747727
scalar OsgEarthNet.uav[87] utilizationEnergyMaintenance 104418.12134933
scalar OsgEarthNet.uav[87] utilizationEnergyCharge 235902.6015625
scalar OsgEarthNet.uav[87] utilizationEnergyOverdrawMission 0
scalar OsgEarthNet.uav[87] utilizationEnergyOverdrawMaintenance 0
scalar OsgEarthNet.uav[87] utilizationCountMissions 52
scalar OsgEarthNet.uav[87] utilizationCountManeuversMission 466
scalar OsgEarthNet.uav[87] utilizationCountManeuversMaintenance 105
scalar OsgEarthNet.uav[87] utilizationCountChargeState 52
scalar OsgEarthNet.uav[87] utilizationCountOverdrawnAfterMission 0
scalar OsgEarthNet.uav[87] utilizationCountIdleState 38
scalar OsgEarthNet.uav[87] utilizationFail 0
scalar OsgEarthNet.uav[87] simulationTime 259200
scalar OsgEarthNet.uav[88] utilizationSecMission 27909.279410155
scalar OsgEarthNet.uav[88] utilizationSecMaintenance 22834.428915931
scalar OsgEarthNet.uav[88] utilizationSecCharge 184295.59023227
scalar OsgEarthNet.uav[88] utilizationSecIdle 24160.700441643
scalar OsgEarthNet.uav[88] utilizationEnergyMission 129000.35547638
scalar OsgEarthNet.uav[88] utilizationEnergyMaintenance 104945.46917725
scalar OsgEarthNet.uav[88] utilizationEnergyCharge 232769.85327148
scalar OsgEarthNet.uav[88] utilizationEnergyOverdrawMission 0
scalar OsgEarthNet.uav[88] utilizationEnergyOverdrawMaintenance 0
scalar OsgEarthNet.uav[88] utilizationCountMissions 52
scalar OsgEarthNet.uav[88] utilizationCountManeuversMission 453
scalar OsgEarthNet.uav[88] utilizationCountManeuversMaintenance 104
scalar OsgEarthNet.uav[88] utilizationCountChargeState 52
scalar OsgEarthNet.uav[88] utilizationCountOverdrawnAfterMission 0
scalar OsgEarthNet.uav[88] utilizationCountIdleState 39
scalar OsgEarthNet.uav[88] utilizationFail 0
scalar OsgEarthNet.uav[88] simulationTime 259200
scalar OsgEarthNet.uav[89] utilizationSecMission 29413.877704836
scalar OsgEarthNet.uav[89] utilizationSecMaintenance 20868.975374539
scalar OsgEarthNet.uav[89] utilizationSecCharge 183349.31695357
scalar OsgEarthNet.uav[89] utilizationSecIdle 25567.828967057
scalar OsgEarthNet.uav[89] utilizationEnergyMission 135532.11631775
scalar OsgEarthNet.uav[89] utilizationEnergyMaintenance 98395.891002655
scalar OsgEarthNet.uav[89] utilizationEnergyCharge 233292.55834961
scalar OsgEarthNet.uav[89] utilizationEnergyOverdrawMission 0
scalar OsgEarthNet.uav[89] utilizationEnergyOverdrawMaintenance 26.057117462158
scalar OsgEarthNet.uav[89] utilizationCountMissions 51
scalar OsgEarthNet.uav[89] utilizationCountManeuversMission 475
scalar OsgEarthNet.uav[89] utilizationCountManeuversMaintenance 102
scalar OsgEarthNet.uav[89] utilizationCountChargeState 51
scalar OsgEarthNet.uav[89] utilizationCountOverdrawnAfterMission 1
scalar OsgEarthNet.uav[89] utilizationCountIdleState 38
scalar OsgEarthNet.uav[89] utilizationFail 0
scalar OsgEarthNet.uav[89] simulationTime 259200
scalar OsgEarthNet.cs[0] usedPower 2139135.8741677
scalar OsgEarthNet.cs[0] chargedPower 2139135.8741677
scalar OsgEarthNet.cs[0] chargedMobileNodes 452
scalar OsgEarthNet.cs[0] reservations 478
scalar OsgEarthNet.cs[1] usedPower 3145089.5497018
scalar OsgEarthNet.cs[1] chargedPower 3145089.5497018
scalar OsgEarthNet.cs[1] chargedMobileNodes 634
scalar OsgEarthNet.cs[1] reservations 684
scalar OsgEarthNet.cs[2] usedPower 4697537.4303893
scalar OsgEarthNet.cs[2] chargedPower 4697537.4303893
scalar OsgEarthNet.cs[2] chargedMobileNodes 977
scalar OsgEarthNet.cs[2] reservations 1040

