version 2
run Szenario_Hotel_Gabelbach-64-20180710-03:20:28-7352
attr configname Szenario_Hotel_Gabelbach
attr datetime 20180710-03:20:28
attr experiment Szenario_Hotel_Gabelbach
attr inifile omnetpp.ini
attr iterationvars "$numUAVs=60, $replM=0"
attr iterationvarsf numUAVs=60,replM=0-
attr measurement "$numUAVs=60, $replM=0"
attr network OsgEarthNet
attr processid 7352
attr repetition 0
attr replication #0
attr resultdir results
attr runnumber 64
attr seedset 64
itervar numUAVs 60
itervar replM 0
param *.osgEarthScene.scene "\"Szenario_Hotel_Gabelbach.earth\""
param *.playgroundLatitude 50.6830269
param *.playgroundLongitude 10.8538055
param *.playgroundWidth 3500m
param *.playgroundHeight 3500m
param *.numCSs 3
param *.cs[0].posX 3537m
param *.cs[0].posY 965m
param *.cs[0].posZ 538m
param *.cs[1].posX 312m
param *.cs[1].posY 1262m
param *.cs[1].posZ 539m
param *.cs[2].posX 2185m
param *.cs[2].posY 3026m
param *.cs[2].posZ 777m
param *.cs[3].posX 10m
param *.cs[3].posY 2200m
param *.cs[3].posZ 560m
param *.cs[4].posX 750m
param *.cs[4].posY 200m
param *.cs[4].posZ 540m
param *.cs[5].posX 2450m
param *.cs[5].posY 180m
param *.cs[5].posZ 524m
param *.cs[6].posX 3140m
param *.cs[6].posY 1790m
param *.cs[6].posZ 606m
param *.numUAVs 60
param *.uav[*].replacementMethod 0
param *.*.timeStep 10s
param *.uav[*].commandPreviewCommandCount 20
param *.missionControl.missionFiles "\"missions\\\\Szenario_WB_Hotel_Gabelbach_Mission_Hotel.waypoints,missions\\\\Szenario_WB_Hotel_Gabelbach_Mission_Kickelhahn.waypoints,missions\\\\Szenario_WB_Hotel_Gabelbach_Mission_Ilmenau_Sportplatz.waypoints,missions\\\\Szenario_WB_Hotel_Gabelbach_Mission_Manebach_Mitte.waypoints,missions\\\\Szenario_WB_Hotel_Gabelbach_Mission_Manebach_Sued.waypoints\""
param *.missionControl.missionFiles "\"missions\\\\Szenario_WB_Hotel_Gabelbach_Mission_Hotel.waypoints,missions\\\\Szenario_WB_Hotel_Gabelbach_Mission_Kickelhahn.waypoints,missions\\\\Szenario_WB_Hotel_Gabelbach_Mission_Ilmenau_Sportplatz.waypoints,missions\\\\Szenario_WB_Hotel_Gabelbach_Mission_Manebach_Mitte.waypoints,missions\\\\Szenario_WB_Hotel_Gabelbach_Mission_Manebach_Sued.waypoints,missions\\\\Szenario_WB_Hotel_Gabelbach_Hover_HoheSchlaufe.waypoints,missions\\\\Szenario_WB_Hotel_Gabelbach_Hover_Kickelhahn.waypoints,missions\\\\Szenario_WB_Hotel_Gabelbach_Hover_Gabelbachskopf.waypoints,missions\\\\Szenario_WB_Hotel_Gabelbach_Hover_Dachskopf.waypoints\""
param *.uav[0].startX 3537m
param *.uav[0].startY 965m
param *.uav[0].startZ 539m
param *.uav[1].startX 312m
param *.uav[1].startY 1262m
param *.uav[1].startZ 540m
param *.uav[2].startX 2185m
param *.uav[2].startY 3026m
param *.uav[2].startZ 778m
param *.uav[3].startX 3537m
param *.uav[3].startY 965m
param *.uav[3].startZ 539m
param *.uav[4].startX 312m
param *.uav[4].startY 1262m
param *.uav[4].startZ 540m
param *.uav[5].startX 2185m
param *.uav[5].startY 3026m
param *.uav[5].startZ 778m
param *.uav[6].startX 3537m
param *.uav[6].startY 965m
param *.uav[6].startZ 539m
param *.uav[7].startX 312m
param *.uav[7].startY 1262m
param *.uav[7].startZ 540m
param *.uav[8].startX 2185m
param *.uav[8].startY 3026m
param *.uav[8].startZ 778m
param *.uav[9].startX 3537m
param *.uav[9].startY 965m
param *.uav[9].startZ 539m
param *.uav[10].startX 3537m
param *.uav[10].startY 965m
param *.uav[10].startZ 539m
param *.uav[11].startX 312m
param *.uav[11].startY 1262m
param *.uav[11].startZ 540m
param *.uav[12].startX 2185m
param *.uav[12].startY 3026m
param *.uav[12].startZ 778m
param *.uav[13].startX 3537m
param *.uav[13].startY 965m
param *.uav[13].startZ 539m
param *.uav[14].startX 312m
param *.uav[14].startY 1262m
param *.uav[14].startZ 540m
param *.uav[15].startX 2185m
param *.uav[15].startY 3026m
param *.uav[15].startZ 778m
param *.uav[16].startX 3537m
param *.uav[16].startY 965m
param *.uav[16].startZ 539m
param *.uav[17].startX 312m
param *.uav[17].startY 1262m
param *.uav[17].startZ 540m
param *.uav[18].startX 2185m
param *.uav[18].startY 3026m
param *.uav[18].startZ 778m
param *.uav[19].startX 3537m
param *.uav[19].startY 965m
param *.uav[19].startZ 539m
param *.uav[20].startX 3537m
param *.uav[20].startY 965m
param *.uav[20].startZ 539m
param *.uav[21].startX 312m
param *.uav[21].startY 1262m
param *.uav[21].startZ 540m
param *.uav[22].startX 2185m
param *.uav[22].startY 3026m
param *.uav[22].startZ 778m
param *.uav[23].startX 3537m
param *.uav[23].startY 965m
param *.uav[23].startZ 539m
param *.uav[24].startX 312m
param *.uav[24].startY 1262m
param *.uav[24].startZ 540m
param *.uav[25].startX 2185m
param *.uav[25].startY 3026m
param *.uav[25].startZ 778m
param *.uav[26].startX 3537m
param *.uav[26].startY 965m
param *.uav[26].startZ 539m
param *.uav[27].startX 312m
param *.uav[27].startY 1262m
param *.uav[27].startZ 540m
param *.uav[28].startX 2185m
param *.uav[28].startY 3026m
param *.uav[28].startZ 778m
param *.uav[29].startX 3537m
param *.uav[29].startY 965m
param *.uav[29].startZ 539m
param *.uav[30].startX 3537m
param *.uav[30].startY 965m
param *.uav[30].startZ 539m
param *.uav[31].startX 312m
param *.uav[31].startY 1262m
param *.uav[31].startZ 540m
param *.uav[32].startX 2185m
param *.uav[32].startY 3026m
param *.uav[32].startZ 778m
param *.uav[33].startX 3537m
param *.uav[33].startY 965m
param *.uav[33].startZ 539m
param *.uav[34].startX 312m
param *.uav[34].startY 1262m
param *.uav[34].startZ 540m
param *.uav[35].startX 2185m
param *.uav[35].startY 3026m
param *.uav[35].startZ 778m
param *.uav[36].startX 3537m
param *.uav[36].startY 965m
param *.uav[36].startZ 539m
param *.uav[37].startX 312m
param *.uav[37].startY 1262m
param *.uav[37].startZ 540m
param *.uav[38].startX 2185m
param *.uav[38].startY 3026m
param *.uav[38].startZ 778m
param *.uav[39].startX 3537m
param *.uav[39].startY 965m
param *.uav[39].startZ 539m
param *.uav[40].startX 3537m
param *.uav[40].startY 965m
param *.uav[40].startZ 539m
param *.uav[41].startX 312m
param *.uav[41].startY 1262m
param *.uav[41].startZ 540m
param *.uav[42].startX 2185m
param *.uav[42].startY 3026m
param *.uav[42].startZ 778m
param *.uav[43].startX 3537m
param *.uav[43].startY 965m
param *.uav[43].startZ 539m
param *.uav[44].startX 312m
param *.uav[44].startY 1262m
param *.uav[44].startZ 540m
param *.uav[45].startX 2185m
param *.uav[45].startY 3026m
param *.uav[45].startZ 778m
param *.uav[46].startX 3537m
param *.uav[46].startY 965m
param *.uav[46].startZ 539m
param *.uav[47].startX 312m
param *.uav[47].startY 1262m
param *.uav[47].startZ 540m
param *.uav[48].startX 2185m
param *.uav[48].startY 3026m
param *.uav[48].startZ 778m
param *.uav[49].startX 3537m
param *.uav[49].startY 965m
param *.uav[49].startZ 539m
param *.uav[50].startX 3537m
param *.uav[50].startY 965m
param *.uav[50].startZ 539m
param *.uav[51].startX 312m
param *.uav[51].startY 1262m
param *.uav[51].startZ 540m
param *.uav[52].startX 2185m
param *.uav[52].startY 3026m
param *.uav[52].startZ 778m
param *.uav[53].startX 3537m
param *.uav[53].startY 965m
param *.uav[53].startZ 539m
param *.uav[54].startX 312m
param *.uav[54].startY 1262m
param *.uav[54].startZ 540m
param *.uav[55].startX 2185m
param *.uav[55].startY 3026m
param *.uav[55].startZ 778m
param *.uav[56].startX 3537m
param *.uav[56].startY 965m
param *.uav[56].startZ 539m
param *.uav[57].startX 312m
param *.uav[57].startY 1262m
param *.uav[57].startZ 540m
param *.uav[58].startX 2185m
param *.uav[58].startY 3026m
param *.uav[58].startZ 778m
param *.uav[59].startX 3537m
param *.uav[59].startY 965m
param *.uav[59].startZ 539m
param *.uav[60].startX 3537m
param *.uav[60].startY 965m
param *.uav[60].startZ 539m
param *.uav[61].startX 312m
param *.uav[61].startY 1262m
param *.uav[61].startZ 540m
param *.uav[62].startX 2185m
param *.uav[62].startY 3026m
param *.uav[62].startZ 778m
param *.uav[63].startX 3537m
param *.uav[63].startY 965m
param *.uav[63].startZ 539m
param *.uav[64].startX 312m
param *.uav[64].startY 1262m
param *.uav[64].startZ 540m
param *.uav[65].startX 2185m
param *.uav[65].startY 3026m
param *.uav[65].startZ 778m
param *.uav[66].startX 3537m
param *.uav[66].startY 965m
param *.uav[66].startZ 539m
param *.uav[67].startX 312m
param *.uav[67].startY 1262m
param *.uav[67].startZ 540m
param *.uav[68].startX 2185m
param *.uav[68].startY 3026m
param *.uav[68].startZ 778m
param *.uav[69].startX 3537m
param *.uav[69].startY 965m
param *.uav[69].startZ 539m
param *.uav[70].startX 3537m
param *.uav[70].startY 965m
param *.uav[70].startZ 539m
param *.uav[71].startX 312m
param *.uav[71].startY 1262m
param *.uav[71].startZ 540m
param *.uav[72].startX 2185m
param *.uav[72].startY 3026m
param *.uav[72].startZ 778m
param *.uav[73].startX 3537m
param *.uav[73].startY 965m
param *.uav[73].startZ 539m
param *.uav[74].startX 312m
param *.uav[74].startY 1262m
param *.uav[74].startZ 540m
param *.uav[75].startX 2185m
param *.uav[75].startY 3026m
param *.uav[75].startZ 778m
param *.uav[76].startX 3537m
param *.uav[76].startY 965m
param *.uav[76].startZ 539m
param *.uav[77].startX 312m
param *.uav[77].startY 1262m
param *.uav[77].startZ 540m
param *.uav[78].startX 2185m
param *.uav[78].startY 3026m
param *.uav[78].startZ 778m
param *.uav[79].startX 3537m
param *.uav[79].startY 965m
param *.uav[79].startZ 539m
param *.uav[80].startX 3537m
param *.uav[80].startY 965m
param *.uav[80].startZ 539m
param *.uav[81].startX 312m
param *.uav[81].startY 1262m
param *.uav[81].startZ 540m
param *.uav[82].startX 2185m
param *.uav[82].startY 3026m
param *.uav[82].startZ 778m
param *.uav[83].startX 3537m
param *.uav[83].startY 965m
param *.uav[83].startZ 539m
param *.uav[84].startX 312m
param *.uav[84].startY 1262m
param *.uav[84].startZ 540m
param *.uav[85].startX 2185m
param *.uav[85].startY 3026m
param *.uav[85].startZ 778m
param *.uav[86].startX 3537m
param *.uav[86].startY 965m
param *.uav[86].startZ 539m
param *.uav[87].startX 312m
param *.uav[87].startY 1262m
param *.uav[87].startZ 540m
param *.uav[88].startX 2185m
param *.uav[88].startY 3026m
param *.uav[88].startZ 778m
param *.uav[89].startX 3537m
param *.uav[89].startY 965m
param *.uav[89].startZ 539m
param *.uav[90].startX 3537m
param *.uav[90].startY 965m
param *.uav[90].startZ 539m
param *.uav[91].startX 312m
param *.uav[91].startY 1262m
param *.uav[91].startZ 540m
param *.uav[92].startX 2185m
param *.uav[92].startY 3026m
param *.uav[92].startZ 778m
param *.uav[93].startX 3537m
param *.uav[93].startY 965m
param *.uav[93].startZ 539m
param *.uav[94].startX 312m
param *.uav[94].startY 1262m
param *.uav[94].startZ 540m
param *.uav[95].startX 2185m
param *.uav[95].startY 3026m
param *.uav[95].startZ 778m
param *.uav[96].startX 3537m
param *.uav[96].startY 965m
param *.uav[96].startZ 539m
param *.uav[97].startX 312m
param *.uav[97].startY 1262m
param *.uav[97].startZ 540m
param *.uav[98].startX 2185m
param *.uav[98].startY 3026m
param *.uav[98].startZ 778m
param *.uav[99].startX 3537m
param *.uav[99].startY 965m
param *.uav[99].startZ 539m
param *.osgEarthScene.scene "\"boston.earth\""
param *.playgroundLatitude 42.3558
param *.playgroundLongitude -71.0677
param *.playgroundWidth 400m
param *.playgroundHeight 200m
param *.channelController.connectionColor "\"#0000FF40\""
param *.channelController.showConnections false
param *.uav[*].modelURL "\"quadrocopter.small.obj.15.scale.0,0,90.rot\""
param *.uav[*].labelColor "\"#FF7C00CC\""
param *.uav[*].label2Color "\"#FF7C00EE\""
param *.uav[*].batteryCapacity 5200mAh
param *.uav[*].batteryRemaining uav[index].batteryCapacity
param *.uav[*].predictionQuantile 0.95
param *.uav[*].replacementMethod 2
param *.uav[*].weightedSumWeight 0.5
param *.cs[*].modelURL "\"chargingstation_v1.osgt.2.scale.0,0,0.rot.0,0,-15e-1.trans\""
param *.cs[*].spotsWaiting 999
param *.cs[*].spotsCharging 999
param *.cs[*].chargeEffectivenessPercentage 100
param *.cs[*].nonLinearPhaseStartPercentage 85
param *.cs[*].chargeCurrent 6.0A
param *.cs[*].prioritizeFastCharge true
param *.missionControl.replacementSearchMethod 0
param *.*.timeStep 9s

scalar OsgEarthNet.uav[0] utilizationSecMission 26863.697869027
scalar OsgEarthNet.uav[0] utilizationSecMaintenance 15952.482549015
scalar OsgEarthNet.uav[0] utilizationSecCharge 156067.07885923
scalar OsgEarthNet.uav[0] utilizationSecIdle 60316.739722725
scalar OsgEarthNet.uav[0] utilizationEnergyMission 124638.90880585
scalar OsgEarthNet.uav[0] utilizationEnergyMaintenance 74956.573680878
scalar OsgEarthNet.uav[0] utilizationEnergyCharge 197089.57592773
scalar OsgEarthNet.uav[0] utilizationEnergyOverdrawMission 0
scalar OsgEarthNet.uav[0] utilizationEnergyOverdrawMaintenance 0
scalar OsgEarthNet.uav[0] utilizationCountMissions 43
scalar OsgEarthNet.uav[0] utilizationCountManeuversMission 424
scalar OsgEarthNet.uav[0] utilizationCountManeuversMaintenance 86
scalar OsgEarthNet.uav[0] utilizationCountChargeState 43
scalar OsgEarthNet.uav[0] utilizationCountOverdrawnAfterMission 0
scalar OsgEarthNet.uav[0] utilizationCountIdleState 43
scalar OsgEarthNet.uav[0] utilizationFail 0
scalar OsgEarthNet.uav[0] simulationTime 259200
scalar OsgEarthNet.uav[1] utilizationSecMission 528.55000878666
scalar OsgEarthNet.uav[1] utilizationSecMaintenance 413.64453676047
scalar OsgEarthNet.uav[1] utilizationSecCharge 3520
scalar OsgEarthNet.uav[1] utilizationSecIdle 254737.80445445
scalar OsgEarthNet.uav[1] utilizationEnergyMission 2598.70703125
scalar OsgEarthNet.uav[1] utilizationEnergyMaintenance 1768.9795761108
scalar OsgEarthNet.uav[1] utilizationEnergyCharge 4367.6850585938
scalar OsgEarthNet.uav[1] utilizationEnergyOverdrawMission 0
scalar OsgEarthNet.uav[1] utilizationEnergyOverdrawMaintenance 0
scalar OsgEarthNet.uav[1] utilizationCountMissions 1
scalar OsgEarthNet.uav[1] utilizationCountManeuversMission 10
scalar OsgEarthNet.uav[1] utilizationCountManeuversMaintenance 2
scalar OsgEarthNet.uav[1] utilizationCountChargeState 1
scalar OsgEarthNet.uav[1] utilizationCountOverdrawnAfterMission 0
scalar OsgEarthNet.uav[1] utilizationCountIdleState 2
scalar OsgEarthNet.uav[1] utilizationFail 0
scalar OsgEarthNet.uav[1] simulationTime 259200
scalar OsgEarthNet.uav[2] utilizationSecMission 27685.156762413
scalar OsgEarthNet.uav[2] utilizationSecMaintenance 19871.465510248
scalar OsgEarthNet.uav[2] utilizationSecCharge 175780
scalar OsgEarthNet.uav[2] utilizationSecIdle 35863.37672734
scalar OsgEarthNet.uav[2] utilizationEnergyMission 127718.93321991
scalar OsgEarthNet.uav[2] utilizationEnergyMaintenance 93205.545513153
scalar OsgEarthNet.uav[2] utilizationEnergyCharge 221173.66040039
scalar OsgEarthNet.uav[2] utilizationEnergyOverdrawMission 0
scalar OsgEarthNet.uav[2] utilizationEnergyOverdrawMaintenance 0
scalar OsgEarthNet.uav[2] utilizationCountMissions 48
scalar OsgEarthNet.uav[2] utilizationCountManeuversMission 462
scalar OsgEarthNet.uav[2] utilizationCountManeuversMaintenance 96
scalar OsgEarthNet.uav[2] utilizationCountChargeState 48
scalar OsgEarthNet.uav[2] utilizationCountOverdrawnAfterMission 0
scalar OsgEarthNet.uav[2] utilizationCountIdleState 49
scalar OsgEarthNet.uav[2] utilizationFail 0
scalar OsgEarthNet.uav[2] simulationTime 259200
scalar OsgEarthNet.uav[3] utilizationSecMission 486.07928439727
scalar OsgEarthNet.uav[3] utilizationSecMaintenance 388.64752970246
scalar OsgEarthNet.uav[3] utilizationSecCharge 3570
scalar OsgEarthNet.uav[3] utilizationSecIdle 254755.2721859
scalar OsgEarthNet.uav[3] utilizationEnergyMission 2328.6473236084
scalar OsgEarthNet.uav[3] utilizationEnergyMaintenance 2011.2304611206
scalar OsgEarthNet.uav[3] utilizationEnergyCharge 4437.0375976562
scalar OsgEarthNet.uav[3] utilizationEnergyOverdrawMission 0
scalar OsgEarthNet.uav[3] utilizationEnergyOverdrawMaintenance 0
scalar OsgEarthNet.uav[3] utilizationCountMissions 1
scalar OsgEarthNet.uav[3] utilizationCountManeuversMission 8
scalar OsgEarthNet.uav[3] utilizationCountManeuversMaintenance 2
scalar OsgEarthNet.uav[3] utilizationCountChargeState 1
scalar OsgEarthNet.uav[3] utilizationCountOverdrawnAfterMission 0
scalar OsgEarthNet.uav[3] utilizationCountIdleState 2
scalar OsgEarthNet.uav[3] utilizationFail 0
scalar OsgEarthNet.uav[3] simulationTime 259200
scalar OsgEarthNet.uav[4] utilizationSecMission 28971.599199543
scalar OsgEarthNet.uav[4] utilizationSecMaintenance 18360.993423404
scalar OsgEarthNet.uav[4] utilizationSecCharge 171760
scalar OsgEarthNet.uav[4] utilizationSecIdle 40107.406377053
scalar OsgEarthNet.uav[4] utilizationEnergyMission 134153.44641876
scalar OsgEarthNet.uav[4] utilizationEnergyMaintenance 85006.932079202
scalar OsgEarthNet.uav[4] utilizationEnergyCharge 216000.87548828
scalar OsgEarthNet.uav[4] utilizationEnergyOverdrawMission 0
scalar OsgEarthNet.uav[4] utilizationEnergyOverdrawMaintenance 0
scalar OsgEarthNet.uav[4] utilizationCountMissions 48
scalar OsgEarthNet.uav[4] utilizationCountManeuversMission 459
scalar OsgEarthNet.uav[4] utilizationCountManeuversMaintenance 96
scalar OsgEarthNet.uav[4] utilizationCountChargeState 47
scalar OsgEarthNet.uav[4] utilizationCountOverdrawnAfterMission 0
scalar OsgEarthNet.uav[4] utilizationCountIdleState 48
scalar OsgEarthNet.uav[4] utilizationFail 0
scalar OsgEarthNet.uav[4] simulationTime 259200
scalar OsgEarthNet.uav[5] utilizationSecMission 5466.9621100165
scalar OsgEarthNet.uav[5] utilizationSecMaintenance 4447.3250755941
scalar OsgEarthNet.uav[5] utilizationSecCharge 36270
scalar OsgEarthNet.uav[5] utilizationSecIdle 213015.71181439
scalar OsgEarthNet.uav[5] utilizationEnergyMission 24806.665473938
scalar OsgEarthNet.uav[5] utilizationEnergyMaintenance 20451.424106598
scalar OsgEarthNet.uav[5] utilizationEnergyCharge 45445.315429688
scalar OsgEarthNet.uav[5] utilizationEnergyOverdrawMission 0
scalar OsgEarthNet.uav[5] utilizationEnergyOverdrawMaintenance 0
scalar OsgEarthNet.uav[5] utilizationCountMissions 10
scalar OsgEarthNet.uav[5] utilizationCountManeuversMission 93
scalar OsgEarthNet.uav[5] utilizationCountManeuversMaintenance 20
scalar OsgEarthNet.uav[5] utilizationCountChargeState 10
scalar OsgEarthNet.uav[5] utilizationCountOverdrawnAfterMission 0
scalar OsgEarthNet.uav[5] utilizationCountIdleState 11
scalar OsgEarthNet.uav[5] utilizationFail 0
scalar OsgEarthNet.uav[5] simulationTime 259200
scalar OsgEarthNet.uav[6] utilizationSecMission 27645.461736435
scalar OsgEarthNet.uav[6] utilizationSecMaintenance 17686.933982781
scalar OsgEarthNet.uav[6] utilizationSecCharge 164962.95784449
scalar OsgEarthNet.uav[6] utilizationSecIdle 48904.6454363
scalar OsgEarthNet.uav[6] utilizationEnergyMission 127388.26490402
scalar OsgEarthNet.uav[6] utilizationEnergyMaintenance 80134.444179535
scalar OsgEarthNet.uav[6] utilizationEnergyCharge 207391.31542969
scalar OsgEarthNet.uav[6] utilizationEnergyOverdrawMission 0
scalar OsgEarthNet.uav[6] utilizationEnergyOverdrawMaintenance 0
scalar OsgEarthNet.uav[6] utilizationCountMissions 46
scalar OsgEarthNet.uav[6] utilizationCountManeuversMission 452
scalar OsgEarthNet.uav[6] utilizationCountManeuversMaintenance 92
scalar OsgEarthNet.uav[6] utilizationCountChargeState 46
scalar OsgEarthNet.uav[6] utilizationCountOverdrawnAfterMission 0
scalar OsgEarthNet.uav[6] utilizationCountIdleState 46
scalar OsgEarthNet.uav[6] utilizationFail 0
scalar OsgEarthNet.uav[6] simulationTime 259200
scalar OsgEarthNet.uav[7] utilizationSecMission 20902.75920349
scalar OsgEarthNet.uav[7] utilizationSecMaintenance 16501.310289607
scalar OsgEarthNet.uav[7] utilizationSecCharge 135333.5859524
scalar OsgEarthNet.uav[7] utilizationSecIdle 86462.343554508
scalar OsgEarthNet.uav[7] utilizationEnergyMission 96559.288200378
scalar OsgEarthNet.uav[7] utilizationEnergyMaintenance 76148.582008362
scalar OsgEarthNet.uav[7] utilizationEnergyCharge 170305.60888672
scalar OsgEarthNet.uav[7] utilizationEnergyOverdrawMission 0
scalar OsgEarthNet.uav[7] utilizationEnergyOverdrawMaintenance 0
scalar OsgEarthNet.uav[7] utilizationCountMissions 38
scalar OsgEarthNet.uav[7] utilizationCountManeuversMission 349
scalar OsgEarthNet.uav[7] utilizationCountManeuversMaintenance 76
scalar OsgEarthNet.uav[7] utilizationCountChargeState 38
scalar OsgEarthNet.uav[7] utilizationCountOverdrawnAfterMission 0
scalar OsgEarthNet.uav[7] utilizationCountIdleState 38
scalar OsgEarthNet.uav[7] utilizationFail 0
scalar OsgEarthNet.uav[7] simulationTime 259200
scalar OsgEarthNet.uav[8] utilizationSecMission 25843.543170451
scalar OsgEarthNet.uav[8] utilizationSecMaintenance 21372.020347815
scalar OsgEarthNet.uav[8] utilizationSecCharge 173495.26037132
scalar OsgEarthNet.uav[8] utilizationSecIdle 38489.175110411
scalar OsgEarthNet.uav[8] utilizationEnergyMission 119125.28249359
scalar OsgEarthNet.uav[8] utilizationEnergyMaintenance 99356.392642975
scalar OsgEarthNet.uav[8] utilizationEnergyCharge 218278.67456055
scalar OsgEarthNet.uav[8] utilizationEnergyOverdrawMission 0
scalar OsgEarthNet.uav[8] utilizationEnergyOverdrawMaintenance 0
scalar OsgEarthNet.uav[8] utilizationCountMissions 48
scalar OsgEarthNet.uav[8] utilizationCountManeuversMission 431
scalar OsgEarthNet.uav[8] utilizationCountManeuversMaintenance 96
scalar OsgEarthNet.uav[8] utilizationCountChargeState 48
scalar OsgEarthNet.uav[8] utilizationCountOverdrawnAfterMission 0
scalar OsgEarthNet.uav[8] utilizationCountIdleState 48
scalar OsgEarthNet.uav[8] utilizationFail 0
scalar OsgEarthNet.uav[8] simulationTime 259200
scalar OsgEarthNet.uav[9] utilizationSecMission 7175.2645965854
scalar OsgEarthNet.uav[9] utilizationSecMaintenance 5029.3685746962
scalar OsgEarthNet.uav[9] utilizationSecCharge 44850
scalar OsgEarthNet.uav[9] utilizationSecIdle 202145.36582872
scalar OsgEarthNet.uav[9] utilizationEnergyMission 33626.902908325
scalar OsgEarthNet.uav[9] utilizationEnergyMaintenance 23499.904491425
scalar OsgEarthNet.uav[9] utilizationEnergyCharge 57032.123535156
scalar OsgEarthNet.uav[9] utilizationEnergyOverdrawMission 0
scalar OsgEarthNet.uav[9] utilizationEnergyOverdrawMaintenance 0
scalar OsgEarthNet.uav[9] utilizationCountMissions 12
scalar OsgEarthNet.uav[9] utilizationCountManeuversMission 125
scalar OsgEarthNet.uav[9] utilizationCountManeuversMaintenance 24
scalar OsgEarthNet.uav[9] utilizationCountChargeState 12
scalar OsgEarthNet.uav[9] utilizationCountOverdrawnAfterMission 0
scalar OsgEarthNet.uav[9] utilizationCountIdleState 13
scalar OsgEarthNet.uav[9] utilizationFail 0
scalar OsgEarthNet.uav[9] simulationTime 259200
scalar OsgEarthNet.uav[10] utilizationSecMission 622.99605640573
scalar OsgEarthNet.uav[10] utilizationSecMaintenance 319.78771796751
scalar OsgEarthNet.uav[10] utilizationSecCharge 3420
scalar OsgEarthNet.uav[10] utilizationSecIdle 254837.21522563
scalar OsgEarthNet.uav[10] utilizationEnergyMission 2733.6071777344
scalar OsgEarthNet.uav[10] utilizationEnergyMaintenance 1450.9354972839
scalar OsgEarthNet.uav[10] utilizationEnergyCharge 4184.544921875
scalar OsgEarthNet.uav[10] utilizationEnergyOverdrawMission 0
scalar OsgEarthNet.uav[10] utilizationEnergyOverdrawMaintenance 0
scalar OsgEarthNet.uav[10] utilizationCountMissions 1
scalar OsgEarthNet.uav[10] utilizationCountManeuversMission 9
scalar OsgEarthNet.uav[10] utilizationCountManeuversMaintenance 2
scalar OsgEarthNet.uav[10] utilizationCountChargeState 1
scalar OsgEarthNet.uav[10] utilizationCountOverdrawnAfterMission 0
scalar OsgEarthNet.uav[10] utilizationCountIdleState 2
scalar OsgEarthNet.uav[10] utilizationFail 0
scalar OsgEarthNet.uav[10] simulationTime 259200
scalar OsgEarthNet.uav[11] utilizationSecMission 22139.480419331
scalar OsgEarthNet.uav[11] utilizationSecMaintenance 17586.759596353
scalar OsgEarthNet.uav[11] utilizationSecCharge 146520
scalar OsgEarthNet.uav[11] utilizationSecIdle 72953.758984316
scalar OsgEarthNet.uav[11] utilizationEnergyMission 101691.22476852
scalar OsgEarthNet.uav[11] utilizationEnergyMaintenance 82030.727443695
scalar OsgEarthNet.uav[11] utilizationEnergyCharge 182535.33422852
scalar OsgEarthNet.uav[11] utilizationEnergyOverdrawMission 0
scalar OsgEarthNet.uav[11] utilizationEnergyOverdrawMaintenance 0
scalar OsgEarthNet.uav[11] utilizationCountMissions 41
scalar OsgEarthNet.uav[11] utilizationCountManeuversMission 362
scalar OsgEarthNet.uav[11] utilizationCountManeuversMaintenance 83
scalar OsgEarthNet.uav[11] utilizationCountChargeState 41
scalar OsgEarthNet.uav[11] utilizationCountOverdrawnAfterMission 0
scalar OsgEarthNet.uav[11] utilizationCountIdleState 42
scalar OsgEarthNet.uav[11] utilizationFail 0
scalar OsgEarthNet.uav[11] simulationTime 259200
scalar OsgEarthNet.uav[12] utilizationSecMission 27579.693202296
scalar OsgEarthNet.uav[12] utilizationSecMaintenance 18529.907176844
scalar OsgEarthNet.uav[12] utilizationSecCharge 169507.69595314
scalar OsgEarthNet.uav[12] utilizationSecIdle 43582.702667718
scalar OsgEarthNet.uav[12] utilizationEnergyMission 127689.7894783
scalar OsgEarthNet.uav[12] utilizationEnergyMaintenance 85115.68572998
scalar OsgEarthNet.uav[12] utilizationEnergyCharge 212967.77099609
scalar OsgEarthNet.uav[12] utilizationEnergyOverdrawMission 0
scalar OsgEarthNet.uav[12] utilizationEnergyOverdrawMaintenance 0
scalar OsgEarthNet.uav[12] utilizationCountMissions 47
scalar OsgEarthNet.uav[12] utilizationCountManeuversMission 458
scalar OsgEarthNet.uav[12] utilizationCountManeuversMaintenance 94
scalar OsgEarthNet.uav[12] utilizationCountChargeState 47
scalar OsgEarthNet.uav[12] utilizationCountOverdrawnAfterMission 0
scalar OsgEarthNet.uav[12] utilizationCountIdleState 47
scalar OsgEarthNet.uav[12] utilizationFail 0
scalar OsgEarthNet.uav[12] simulationTime 259200
scalar OsgEarthNet.uav[13] utilizationSecMission 1958.112014236
scalar OsgEarthNet.uav[13] utilizationSecMaintenance 1245.2427758536
scalar OsgEarthNet.uav[13] utilizationSecCharge 11500
scalar OsgEarthNet.uav[13] utilizationSecIdle 244496.64420991
scalar OsgEarthNet.uav[13] utilizationEnergyMission 9239.7483978271
scalar OsgEarthNet.uav[13] utilizationEnergyMaintenance 5769.8261871338
scalar OsgEarthNet.uav[13] utilizationEnergyCharge 14848.616210938
scalar OsgEarthNet.uav[13] utilizationEnergyOverdrawMission 0
scalar OsgEarthNet.uav[13] utilizationEnergyOverdrawMaintenance 0
scalar OsgEarthNet.uav[13] utilizationCountMissions 3
scalar OsgEarthNet.uav[13] utilizationCountManeuversMission 32
scalar OsgEarthNet.uav[13] utilizationCountManeuversMaintenance 6
scalar OsgEarthNet.uav[13] utilizationCountChargeState 3
scalar OsgEarthNet.uav[13] utilizationCountOverdrawnAfterMission 0
scalar OsgEarthNet.uav[13] utilizationCountIdleState 4
scalar OsgEarthNet.uav[13] utilizationFail 0
scalar OsgEarthNet.uav[13] simulationTime 259200
scalar OsgEarthNet.uav[14] utilizationSecMission 27902.743696921
scalar OsgEarthNet.uav[14] utilizationSecMaintenance 16457.247368357
scalar OsgEarthNet.uav[14] utilizationSecCharge 163620
scalar OsgEarthNet.uav[14] utilizationSecIdle 51220.007934721
scalar OsgEarthNet.uav[14] utilizationEnergyMission 128799.01013184
scalar OsgEarthNet.uav[14] utilizationEnergyMaintenance 76398.268437127
scalar OsgEarthNet.uav[14] utilizationEnergyCharge 205366.14941406
scalar OsgEarthNet.uav[14] utilizationEnergyOverdrawMission 0
scalar OsgEarthNet.uav[14] utilizationEnergyOverdrawMaintenance 0
scalar OsgEarthNet.uav[14] utilizationCountMissions 45
scalar OsgEarthNet.uav[14] utilizationCountManeuversMission 444
scalar OsgEarthNet.uav[14] utilizationCountManeuversMaintenance 91
scalar OsgEarthNet.uav[14] utilizationCountChargeState 45
scalar OsgEarthNet.uav[14] utilizationCountOverdrawnAfterMission 0
scalar OsgEarthNet.uav[14] utilizationCountIdleState 46
scalar OsgEarthNet.uav[14] utilizationFail 0
scalar OsgEarthNet.uav[14] simulationTime 259200
scalar OsgEarthNet.uav[15] utilizationSecMission 3143.8453612781
scalar OsgEarthNet.uav[15] utilizationSecMaintenance 885.79586042167
scalar OsgEarthNet.uav[15] utilizationSecCharge 14750
scalar OsgEarthNet.uav[15] utilizationSecIdle 240420.3577783
scalar OsgEarthNet.uav[15] utilizationEnergyMission 14590.457023621
scalar OsgEarthNet.uav[15] utilizationEnergyMaintenance 3935.3735961914
scalar OsgEarthNet.uav[15] utilizationEnergyCharge 18626.296875
scalar OsgEarthNet.uav[15] utilizationEnergyOverdrawMission 0
scalar OsgEarthNet.uav[15] utilizationEnergyOverdrawMaintenance 0
scalar OsgEarthNet.uav[15] utilizationCountMissions 4
scalar OsgEarthNet.uav[15] utilizationCountManeuversMission 50
scalar OsgEarthNet.uav[15] utilizationCountManeuversMaintenance 8
scalar OsgEarthNet.uav[15] utilizationCountChargeState 4
scalar OsgEarthNet.uav[15] utilizationCountOverdrawnAfterMission 0
scalar OsgEarthNet.uav[15] utilizationCountIdleState 5
scalar OsgEarthNet.uav[15] utilizationFail 0
scalar OsgEarthNet.uav[15] simulationTime 259200
scalar OsgEarthNet.uav[16] utilizationSecMission 1344.6886306008
scalar OsgEarthNet.uav[16] utilizationSecMaintenance 622.67396455354
scalar OsgEarthNet.uav[16] utilizationSecCharge 7230
scalar OsgEarthNet.uav[16] utilizationSecIdle 250002.63640485
scalar OsgEarthNet.uav[16] utilizationEnergyMission 6232.4301605225
scalar OsgEarthNet.uav[16] utilizationEnergyMaintenance 2885.5155067444
scalar OsgEarthNet.uav[16] utilizationEnergyCharge 9117.9423828125
scalar OsgEarthNet.uav[16] utilizationEnergyOverdrawMission 0
scalar OsgEarthNet.uav[16] utilizationEnergyOverdrawMaintenance 0
scalar OsgEarthNet.uav[16] utilizationCountMissions 2
scalar OsgEarthNet.uav[16] utilizationCountManeuversMission 22
scalar OsgEarthNet.uav[16] utilizationCountManeuversMaintenance 4
scalar OsgEarthNet.uav[16] utilizationCountChargeState 2
scalar OsgEarthNet.uav[16] utilizationCountOverdrawnAfterMission 0
scalar OsgEarthNet.uav[16] utilizationCountIdleState 3
scalar OsgEarthNet.uav[16] utilizationFail 0
scalar OsgEarthNet.uav[16] simulationTime 259200
scalar OsgEarthNet.uav[17] utilizationSecMission 648.09208854277
scalar OsgEarthNet.uav[17] utilizationSecMaintenance 399.17886017656
scalar OsgEarthNet.uav[17] utilizationSecCharge 3810
scalar OsgEarthNet.uav[17] utilizationSecIdle 254342.72805128
scalar OsgEarthNet.uav[17] utilizationEnergyMission 3087.6314697266
scalar OsgEarthNet.uav[17] utilizationEnergyMaintenance 1916.7037773132
scalar OsgEarthNet.uav[17] utilizationEnergyCharge 4882.4208984375
scalar OsgEarthNet.uav[17] utilizationEnergyOverdrawMission 0
scalar OsgEarthNet.uav[17] utilizationEnergyOverdrawMaintenance 0
scalar OsgEarthNet.uav[17] utilizationCountMissions 1
scalar OsgEarthNet.uav[17] utilizationCountManeuversMission 10
scalar OsgEarthNet.uav[17] utilizationCountManeuversMaintenance 2
scalar OsgEarthNet.uav[17] utilizationCountChargeState 1
scalar OsgEarthNet.uav[17] utilizationCountOverdrawnAfterMission 0
scalar OsgEarthNet.uav[17] utilizationCountIdleState 2
scalar OsgEarthNet.uav[17] utilizationFail 0
scalar OsgEarthNet.uav[17] simulationTime 259200
scalar OsgEarthNet.uav[18] utilizationSecMission 28799.68157788
scalar OsgEarthNet.uav[18] utilizationSecMaintenance 21650.987871701
scalar OsgEarthNet.uav[18] utilizationSecCharge 182577.32955042
scalar OsgEarthNet.uav[18] utilizationSecIdle 26172
scalar OsgEarthNet.uav[18] utilizationEnergyMission 133047.08365559
scalar OsgEarthNet.uav[18] utilizationEnergyMaintenance 101011.66321945
scalar OsgEarthNet.uav[18] utilizationEnergyCharge 229366.00805664
scalar OsgEarthNet.uav[18] utilizationEnergyOverdrawMission 0
scalar OsgEarthNet.uav[18] utilizationEnergyOverdrawMaintenance 0
scalar OsgEarthNet.uav[18] utilizationCountMissions 51
scalar OsgEarthNet.uav[18] utilizationCountManeuversMission 475
scalar OsgEarthNet.uav[18] utilizationCountManeuversMaintenance 101
scalar OsgEarthNet.uav[18] utilizationCountChargeState 51
scalar OsgEarthNet.uav[18] utilizationCountOverdrawnAfterMission 0
scalar OsgEarthNet.uav[18] utilizationCountIdleState 51
scalar OsgEarthNet.uav[18] utilizationFail 0
scalar OsgEarthNet.uav[18] simulationTime 259200
scalar OsgEarthNet.uav[19] utilizationSecMission 343.68863208153
scalar OsgEarthNet.uav[19] utilizationSecMaintenance 589.36831023416
scalar OsgEarthNet.uav[19] utilizationSecCharge 3480
scalar OsgEarthNet.uav[19] utilizationSecIdle 254786.94205768
scalar OsgEarthNet.uav[19] utilizationEnergyMission 1576.7059402466
scalar OsgEarthNet.uav[19] utilizationEnergyMaintenance 2696.6737174988
scalar OsgEarthNet.uav[19] utilizationEnergyCharge 4273.3774414062
scalar OsgEarthNet.uav[19] utilizationEnergyOverdrawMission 0
scalar OsgEarthNet.uav[19] utilizationEnergyOverdrawMaintenance 0
scalar OsgEarthNet.uav[19] utilizationCountMissions 1
scalar OsgEarthNet.uav[19] utilizationCountManeuversMission 7
scalar OsgEarthNet.uav[19] utilizationCountManeuversMaintenance 2
scalar OsgEarthNet.uav[19] utilizationCountChargeState 1
scalar OsgEarthNet.uav[19] utilizationCountOverdrawnAfterMission 0
scalar OsgEarthNet.uav[19] utilizationCountIdleState 2
scalar OsgEarthNet.uav[19] utilizationFail 0
scalar OsgEarthNet.uav[19] simulationTime 259200
scalar OsgEarthNet.uav[20] utilizationSecMission 29138.189399195
scalar OsgEarthNet.uav[20] utilizationSecMaintenance 20139.809600805
scalar OsgEarthNet.uav[20] utilizationSecCharge 179600
scalar OsgEarthNet.uav[20] utilizationSecIdle 30322
scalar OsgEarthNet.uav[20] utilizationEnergyMission 135603.95128837
scalar OsgEarthNet.uav[20] utilizationEnergyMaintenance 93048.661525726
scalar OsgEarthNet.uav[20] utilizationEnergyCharge 226175.42529297
scalar OsgEarthNet.uav[20] utilizationEnergyOverdrawMission 0
scalar OsgEarthNet.uav[20] utilizationEnergyOverdrawMaintenance 0
scalar OsgEarthNet.uav[20] utilizationCountMissions 49
scalar OsgEarthNet.uav[20] utilizationCountManeuversMission 468
scalar OsgEarthNet.uav[20] utilizationCountManeuversMaintenance 98
scalar OsgEarthNet.uav[20] utilizationCountChargeState 49
scalar OsgEarthNet.uav[20] utilizationCountOverdrawnAfterMission 0
scalar OsgEarthNet.uav[20] utilizationCountIdleState 50
scalar OsgEarthNet.uav[20] utilizationFail 0
scalar OsgEarthNet.uav[20] simulationTime 259200
scalar OsgEarthNet.uav[21] utilizationSecMission 12008.831538795
scalar OsgEarthNet.uav[21] utilizationSecMaintenance 9484.6175718328
scalar OsgEarthNet.uav[21] utilizationSecCharge 75482.198229734
scalar OsgEarthNet.uav[21] utilizationSecIdle 162224.35165964
scalar OsgEarthNet.uav[21] utilizationEnergyMission 55020.322235107
scalar OsgEarthNet.uav[21] utilizationEnergyMaintenance 43922.085548401
scalar OsgEarthNet.uav[21] utilizationEnergyCharge 94544.468078613
scalar OsgEarthNet.uav[21] utilizationEnergyOverdrawMission 0
scalar OsgEarthNet.uav[21] utilizationEnergyOverdrawMaintenance 0
scalar OsgEarthNet.uav[21] utilizationCountMissions 22
scalar OsgEarthNet.uav[21] utilizationCountManeuversMission 202
scalar OsgEarthNet.uav[21] utilizationCountManeuversMaintenance 44
scalar OsgEarthNet.uav[21] utilizationCountChargeState 22
scalar OsgEarthNet.uav[21] utilizationCountOverdrawnAfterMission 0
scalar OsgEarthNet.uav[21] utilizationCountIdleState 22
scalar OsgEarthNet.uav[21] utilizationFail 0
scalar OsgEarthNet.uav[21] simulationTime 259200
scalar OsgEarthNet.uav[22] utilizationSecMission 29466.196126999
scalar OsgEarthNet.uav[22] utilizationSecMaintenance 18246.35260897
scalar OsgEarthNet.uav[22] utilizationSecCharge 176240
scalar OsgEarthNet.uav[22] utilizationSecIdle 35247.450264031
scalar OsgEarthNet.uav[22] utilizationEnergyMission 134893.63378475
scalar OsgEarthNet.uav[22] utilizationEnergyMaintenance 85196.308330536
scalar OsgEarthNet.uav[22] utilizationEnergyCharge 220497.62207031
scalar OsgEarthNet.uav[22] utilizationEnergyOverdrawMission 0
scalar OsgEarthNet.uav[22] utilizationEnergyOverdrawMaintenance 0
scalar OsgEarthNet.uav[22] utilizationCountMissions 49
scalar OsgEarthNet.uav[22] utilizationCountManeuversMission 478
scalar OsgEarthNet.uav[22] utilizationCountManeuversMaintenance 99
scalar OsgEarthNet.uav[22] utilizationCountChargeState 49
scalar OsgEarthNet.uav[22] utilizationCountOverdrawnAfterMission 0
scalar OsgEarthNet.uav[22] utilizationCountIdleState 50
scalar OsgEarthNet.uav[22] utilizationFail 0
scalar OsgEarthNet.uav[22] simulationTime 259200
scalar OsgEarthNet.uav[23] utilizationSecMission 25655.762393115
scalar OsgEarthNet.uav[23] utilizationSecMaintenance 15754.255484998
scalar OsgEarthNet.uav[23] utilizationSecCharge 150682.20492461
scalar OsgEarthNet.uav[23] utilizationSecIdle 67107.776197273
scalar OsgEarthNet.uav[23] utilizationEnergyMission 118812.53117752
scalar OsgEarthNet.uav[23] utilizationEnergyMaintenance 72890.545536041
scalar OsgEarthNet.uav[23] utilizationEnergyCharge 189987.40136719
scalar OsgEarthNet.uav[23] utilizationEnergyOverdrawMission 0
scalar OsgEarthNet.uav[23] utilizationEnergyOverdrawMaintenance 0
scalar OsgEarthNet.uav[23] utilizationCountMissions 42
scalar OsgEarthNet.uav[23] utilizationCountManeuversMission 418
scalar OsgEarthNet.uav[23] utilizationCountManeuversMaintenance 84
scalar OsgEarthNet.uav[23] utilizationCountChargeState 42
scalar OsgEarthNet.uav[23] utilizationCountOverdrawnAfterMission 0
scalar OsgEarthNet.uav[23] utilizationCountIdleState 42
scalar OsgEarthNet.uav[23] utilizationFail 0
scalar OsgEarthNet.uav[23] simulationTime 259200
scalar OsgEarthNet.uav[24] utilizationSecMission 25176.647685027
scalar OsgEarthNet.uav[24] utilizationSecMaintenance 17052.033918743
scalar OsgEarthNet.uav[24] utilizationSecCharge 155404.8425843
scalar OsgEarthNet.uav[24] utilizationSecIdle 61566.47481193
scalar OsgEarthNet.uav[24] utilizationEnergyMission 116231.26686096
scalar OsgEarthNet.uav[24] utilizationEnergyMaintenance 78844.560626984
scalar OsgEarthNet.uav[24] utilizationEnergyCharge 195193.27368164
scalar OsgEarthNet.uav[24] utilizationEnergyOverdrawMission 0
scalar OsgEarthNet.uav[24] utilizationEnergyOverdrawMaintenance 0
scalar OsgEarthNet.uav[24] utilizationCountMissions 43
scalar OsgEarthNet.uav[24] utilizationCountManeuversMission 407
scalar OsgEarthNet.uav[24] utilizationCountManeuversMaintenance 86
scalar OsgEarthNet.uav[24] utilizationCountChargeState 43
scalar OsgEarthNet.uav[24] utilizationCountOverdrawnAfterMission 0
scalar OsgEarthNet.uav[24] utilizationCountIdleState 43
scalar OsgEarthNet.uav[24] utilizationFail 0
scalar OsgEarthNet.uav[24] simulationTime 259200
scalar OsgEarthNet.uav[25] utilizationSecMission 15951.158778512
scalar OsgEarthNet.uav[25] utilizationSecMaintenance 11435.210637952
scalar OsgEarthNet.uav[25] utilizationSecCharge 98394.171235308
scalar OsgEarthNet.uav[25] utilizationSecIdle 133419.45834823
scalar OsgEarthNet.uav[25] utilizationEnergyMission 74599.528964996
scalar OsgEarthNet.uav[25] utilizationEnergyMaintenance 52883.670066834
scalar OsgEarthNet.uav[25] utilizationEnergyCharge 123511.1137085
scalar OsgEarthNet.uav[25] utilizationEnergyOverdrawMission 0
scalar OsgEarthNet.uav[25] utilizationEnergyOverdrawMaintenance 200.48658752441
scalar OsgEarthNet.uav[25] utilizationCountMissions 28
scalar OsgEarthNet.uav[25] utilizationCountManeuversMission 260
scalar OsgEarthNet.uav[25] utilizationCountManeuversMaintenance 56
scalar OsgEarthNet.uav[25] utilizationCountChargeState 28
scalar OsgEarthNet.uav[25] utilizationCountOverdrawnAfterMission 1
scalar OsgEarthNet.uav[25] utilizationCountIdleState 28
scalar OsgEarthNet.uav[25] utilizationFail 0
scalar OsgEarthNet.uav[25] simulationTime 259200
scalar OsgEarthNet.uav[26] utilizationSecMission 581.19640448947
scalar OsgEarthNet.uav[26] utilizationSecMaintenance 393.71026136566
scalar OsgEarthNet.uav[26] utilizationSecCharge 3620
scalar OsgEarthNet.uav[26] utilizationSecIdle 254605.09233414
scalar OsgEarthNet.uav[26] utilizationEnergyMission 2396.4167938232
scalar OsgEarthNet.uav[26] utilizationEnergyMaintenance 1948.3079452515
scalar OsgEarthNet.uav[26] utilizationEnergyCharge 4513.9418945312
scalar OsgEarthNet.uav[26] utilizationEnergyOverdrawMission 0
scalar OsgEarthNet.uav[26] utilizationEnergyOverdrawMaintenance 0
scalar OsgEarthNet.uav[26] utilizationCountMissions 1
scalar OsgEarthNet.uav[26] utilizationCountManeuversMission 9
scalar OsgEarthNet.uav[26] utilizationCountManeuversMaintenance 2
scalar OsgEarthNet.uav[26] utilizationCountChargeState 1
scalar OsgEarthNet.uav[26] utilizationCountOverdrawnAfterMission 0
scalar OsgEarthNet.uav[26] utilizationCountIdleState 2
scalar OsgEarthNet.uav[26] utilizationFail 0
scalar OsgEarthNet.uav[26] simulationTime 259200
scalar OsgEarthNet.uav[27] utilizationSecMission 26408.334521335
scalar OsgEarthNet.uav[27] utilizationSecMaintenance 19131.82345652
scalar OsgEarthNet.uav[27] utilizationSecCharge 167159.82275558
scalar OsgEarthNet.uav[27] utilizationSecIdle 46500.01826657
scalar OsgEarthNet.uav[27] utilizationEnergyMission 123591.05882263
scalar OsgEarthNet.uav[27] utilizationEnergyMaintenance 87354.246055603
scalar OsgEarthNet.uav[27] utilizationEnergyCharge 209983.82763672
scalar OsgEarthNet.uav[27] utilizationEnergyOverdrawMission 0
scalar OsgEarthNet.uav[27] utilizationEnergyOverdrawMaintenance 0
scalar OsgEarthNet.uav[27] utilizationCountMissions 47
scalar OsgEarthNet.uav[27] utilizationCountManeuversMission 438
scalar OsgEarthNet.uav[27] utilizationCountManeuversMaintenance 94
scalar OsgEarthNet.uav[27] utilizationCountChargeState 47
scalar OsgEarthNet.uav[27] utilizationCountOverdrawnAfterMission 0
scalar OsgEarthNet.uav[27] utilizationCountIdleState 47
scalar OsgEarthNet.uav[27] utilizationFail 0
scalar OsgEarthNet.uav[27] simulationTime 259200
scalar OsgEarthNet.uav[28] utilizationSecMission 26157.288063561
scalar OsgEarthNet.uav[28] utilizationSecMaintenance 17884.8185142
scalar OsgEarthNet.uav[28] utilizationSecCharge 160648.46707495
scalar OsgEarthNet.uav[28] utilizationSecIdle 54509.42534729
scalar OsgEarthNet.uav[28] utilizationEnergyMission 120307.55214691
scalar OsgEarthNet.uav[28] utilizationEnergyMaintenance 82217.547634125
scalar OsgEarthNet.uav[28] utilizationEnergyCharge 202030.38378906
scalar OsgEarthNet.uav[28] utilizationEnergyOverdrawMission 0
scalar OsgEarthNet.uav[28] utilizationEnergyOverdrawMaintenance 0
scalar OsgEarthNet.uav[28] utilizationCountMissions 45
scalar OsgEarthNet.uav[28] utilizationCountManeuversMission 415
scalar OsgEarthNet.uav[28] utilizationCountManeuversMaintenance 90
scalar OsgEarthNet.uav[28] utilizationCountChargeState 45
scalar OsgEarthNet.uav[28] utilizationCountOverdrawnAfterMission 0
scalar OsgEarthNet.uav[28] utilizationCountIdleState 45
scalar OsgEarthNet.uav[28] utilizationFail 0
scalar OsgEarthNet.uav[28] simulationTime 259200
scalar OsgEarthNet.uav[29] utilizationSecMission 650.68693590098
scalar OsgEarthNet.uav[29] utilizationSecMaintenance 350.31285707965
scalar OsgEarthNet.uav[29] utilizationSecCharge 3640
scalar OsgEarthNet.uav[29] utilizationSecIdle 254558.99920702
scalar OsgEarthNet.uav[29] utilizationEnergyMission 2990.3294067383
scalar OsgEarthNet.uav[29] utilizationEnergyMaintenance 1588.1773605347
scalar OsgEarthNet.uav[29] utilizationEnergyCharge 4578.5053710938
scalar OsgEarthNet.uav[29] utilizationEnergyOverdrawMission 0
scalar OsgEarthNet.uav[29] utilizationEnergyOverdrawMaintenance 0
scalar OsgEarthNet.uav[29] utilizationCountMissions 1
scalar OsgEarthNet.uav[29] utilizationCountManeuversMission 9
scalar OsgEarthNet.uav[29] utilizationCountManeuversMaintenance 2
scalar OsgEarthNet.uav[29] utilizationCountChargeState 1
scalar OsgEarthNet.uav[29] utilizationCountOverdrawnAfterMission 0
scalar OsgEarthNet.uav[29] utilizationCountIdleState 2
scalar OsgEarthNet.uav[29] utilizationFail 0
scalar OsgEarthNet.uav[29] simulationTime 259200
scalar OsgEarthNet.uav[30] utilizationSecMission 28498.099146093
scalar OsgEarthNet.uav[30] utilizationSecMaintenance 20119.383187258
scalar OsgEarthNet.uav[30] utilizationSecCharge 178060
scalar OsgEarthNet.uav[30] utilizationSecIdle 32522.516666648
scalar OsgEarthNet.uav[30] utilizationEnergyMission 130945.83357239
scalar OsgEarthNet.uav[30] utilizationEnergyMaintenance 92750.523582458
scalar OsgEarthNet.uav[30] utilizationEnergyCharge 223672.64990234
scalar OsgEarthNet.uav[30] utilizationEnergyOverdrawMission 0
scalar OsgEarthNet.uav[30] utilizationEnergyOverdrawMaintenance 0
scalar OsgEarthNet.uav[30] utilizationCountMissions 49
scalar OsgEarthNet.uav[30] utilizationCountManeuversMission 463
scalar OsgEarthNet.uav[30] utilizationCountManeuversMaintenance 98
scalar OsgEarthNet.uav[30] utilizationCountChargeState 49
scalar OsgEarthNet.uav[30] utilizationCountOverdrawnAfterMission 0
scalar OsgEarthNet.uav[30] utilizationCountIdleState 50
scalar OsgEarthNet.uav[30] utilizationFail 0
scalar OsgEarthNet.uav[30] simulationTime 259200
scalar OsgEarthNet.uav[31] utilizationSecMission 24029.053213692
scalar OsgEarthNet.uav[31] utilizationSecMaintenance 16072.955765803
scalar OsgEarthNet.uav[31] utilizationSecCharge 148970
scalar OsgEarthNet.uav[31] utilizationSecIdle 70127.990020505
scalar OsgEarthNet.uav[31] utilizationEnergyMission 111421.62319946
scalar OsgEarthNet.uav[31] utilizationEnergyMaintenance 75002.336753845
scalar OsgEarthNet.uav[31] utilizationEnergyCharge 187100.78149414
scalar OsgEarthNet.uav[31] utilizationEnergyOverdrawMission 0
scalar OsgEarthNet.uav[31] utilizationEnergyOverdrawMaintenance 0
scalar OsgEarthNet.uav[31] utilizationCountMissions 41
scalar OsgEarthNet.uav[31] utilizationCountManeuversMission 392
scalar OsgEarthNet.uav[31] utilizationCountManeuversMaintenance 82
scalar OsgEarthNet.uav[31] utilizationCountChargeState 41
scalar OsgEarthNet.uav[31] utilizationCountOverdrawnAfterMission 0
scalar OsgEarthNet.uav[31] utilizationCountIdleState 42
scalar OsgEarthNet.uav[31] utilizationFail 0
scalar OsgEarthNet.uav[31] simulationTime 259200
scalar OsgEarthNet.uav[32] utilizationSecMission 29362.339912336
scalar OsgEarthNet.uav[32] utilizationSecMaintenance 18963.292747758
scalar OsgEarthNet.uav[32] utilizationSecCharge 177160.13932686
scalar OsgEarthNet.uav[32] utilizationSecIdle 33714.227013043
scalar OsgEarthNet.uav[32] utilizationEnergyMission 135856.78384399
scalar OsgEarthNet.uav[32] utilizationEnergyMaintenance 87480.639030457
scalar OsgEarthNet.uav[32] utilizationEnergyCharge 223251.84594727
scalar OsgEarthNet.uav[32] utilizationEnergyOverdrawMission 0
scalar OsgEarthNet.uav[32] utilizationEnergyOverdrawMaintenance 0
scalar OsgEarthNet.uav[32] utilizationCountMissions 49
scalar OsgEarthNet.uav[32] utilizationCountManeuversMission 486
scalar OsgEarthNet.uav[32] utilizationCountManeuversMaintenance 98
scalar OsgEarthNet.uav[32] utilizationCountChargeState 49
scalar OsgEarthNet.uav[32] utilizationCountOverdrawnAfterMission 0
scalar OsgEarthNet.uav[32] utilizationCountIdleState 49
scalar OsgEarthNet.uav[32] utilizationFail 0
scalar OsgEarthNet.uav[32] simulationTime 259200
scalar OsgEarthNet.uav[33] utilizationSecMission 27311.805500174
scalar OsgEarthNet.uav[33] utilizationSecMaintenance 20960.036205204
scalar OsgEarthNet.uav[33] utilizationSecCharge 177010
scalar OsgEarthNet.uav[33] utilizationSecIdle 33918.157294622
scalar OsgEarthNet.uav[33] utilizationEnergyMission 125815.18419266
scalar OsgEarthNet.uav[33] utilizationEnergyMaintenance 96655.501888275
scalar OsgEarthNet.uav[33] utilizationEnergyCharge 221866.76025391
scalar OsgEarthNet.uav[33] utilizationEnergyOverdrawMission 0
scalar OsgEarthNet.uav[33] utilizationEnergyOverdrawMaintenance 0
scalar OsgEarthNet.uav[33] utilizationCountMissions 49
scalar OsgEarthNet.uav[33] utilizationCountManeuversMission 446
scalar OsgEarthNet.uav[33] utilizationCountManeuversMaintenance 98
scalar OsgEarthNet.uav[33] utilizationCountChargeState 49
scalar OsgEarthNet.uav[33] utilizationCountOverdrawnAfterMission 0
scalar OsgEarthNet.uav[33] utilizationCountIdleState 50
scalar OsgEarthNet.uav[33] utilizationFail 0
scalar OsgEarthNet.uav[33] simulationTime 259200
scalar OsgEarthNet.uav[34] utilizationSecMission 28142.625283008
scalar OsgEarthNet.uav[34] utilizationSecMaintenance 20298.576044522
scalar OsgEarthNet.uav[34] utilizationSecCharge 176284.76860796
scalar OsgEarthNet.uav[34] utilizationSecIdle 34474.029064514
scalar OsgEarthNet.uav[34] utilizationEnergyMission 130278.6826973
scalar OsgEarthNet.uav[34] utilizationEnergyMaintenance 93631.420475006
scalar OsgEarthNet.uav[34] utilizationEnergyCharge 220969.05688477
scalar OsgEarthNet.uav[34] utilizationEnergyOverdrawMission 0
scalar OsgEarthNet.uav[34] utilizationEnergyOverdrawMaintenance 0
scalar OsgEarthNet.uav[34] utilizationCountMissions 50
scalar OsgEarthNet.uav[34] utilizationCountManeuversMission 461
scalar OsgEarthNet.uav[34] utilizationCountManeuversMaintenance 100
scalar OsgEarthNet.uav[34] utilizationCountChargeState 50
scalar OsgEarthNet.uav[34] utilizationCountOverdrawnAfterMission 0
scalar OsgEarthNet.uav[34] utilizationCountIdleState 49
scalar OsgEarthNet.uav[34] utilizationFail 0
scalar OsgEarthNet.uav[34] simulationTime 259200
scalar OsgEarthNet.uav[35] utilizationSecMission 19049.435759485
scalar OsgEarthNet.uav[35] utilizationSecMaintenance 13639.022164489
scalar OsgEarthNet.uav[35] utilizationSecCharge 118261.90999536
scalar OsgEarthNet.uav[35] utilizationSecIdle 108249.63108067
scalar OsgEarthNet.uav[35] utilizationEnergyMission 87494.667961121
scalar OsgEarthNet.uav[35] utilizationEnergyMaintenance 63862.598503113
scalar OsgEarthNet.uav[35] utilizationEnergyCharge 149398.55908203
scalar OsgEarthNet.uav[35] utilizationEnergyOverdrawMission 0
scalar OsgEarthNet.uav[35] utilizationEnergyOverdrawMaintenance 0
scalar OsgEarthNet.uav[35] utilizationCountMissions 33
scalar OsgEarthNet.uav[35] utilizationCountManeuversMission 307
scalar OsgEarthNet.uav[35] utilizationCountManeuversMaintenance 66
scalar OsgEarthNet.uav[35] utilizationCountChargeState 33
scalar OsgEarthNet.uav[35] utilizationCountOverdrawnAfterMission 0
scalar OsgEarthNet.uav[35] utilizationCountIdleState 33
scalar OsgEarthNet.uav[35] utilizationFail 0
scalar OsgEarthNet.uav[35] simulationTime 259200
scalar OsgEarthNet.uav[36] utilizationSecMission 23324.271424115
scalar OsgEarthNet.uav[36] utilizationSecMaintenance 15186.858285888
scalar OsgEarthNet.uav[36] utilizationSecCharge 139208.09156759
scalar OsgEarthNet.uav[36] utilizationSecIdle 81480.777722408
scalar OsgEarthNet.uav[36] utilizationEnergyMission 107806.89603424
scalar OsgEarthNet.uav[36] utilizationEnergyMaintenance 71058.172607422
scalar OsgEarthNet.uav[36] utilizationEnergyCharge 175015.00036621
scalar OsgEarthNet.uav[36] utilizationEnergyOverdrawMission 0
scalar OsgEarthNet.uav[36] utilizationEnergyOverdrawMaintenance 0
scalar OsgEarthNet.uav[36] utilizationCountMissions 39
scalar OsgEarthNet.uav[36] utilizationCountManeuversMission 380
scalar OsgEarthNet.uav[36] utilizationCountManeuversMaintenance 78
scalar OsgEarthNet.uav[36] utilizationCountChargeState 39
scalar OsgEarthNet.uav[36] utilizationCountOverdrawnAfterMission 0
scalar OsgEarthNet.uav[36] utilizationCountIdleState 39
scalar OsgEarthNet.uav[36] utilizationFail 0
scalar OsgEarthNet.uav[36] simulationTime 259200
scalar OsgEarthNet.uav[37] utilizationSecMission 18902.99157235
scalar OsgEarthNet.uav[37] utilizationSecMaintenance 12504.214627831
scalar OsgEarthNet.uav[37] utilizationSecCharge 114692.44384189
scalar OsgEarthNet.uav[37] utilizationSecIdle 113100.34895793
scalar OsgEarthNet.uav[37] utilizationEnergyMission 87501.493217468
scalar OsgEarthNet.uav[37] utilizationEnergyMaintenance 57819.812351227
scalar OsgEarthNet.uav[37] utilizationEnergyCharge 145082.98193359
scalar OsgEarthNet.uav[37] utilizationEnergyOverdrawMission 0
scalar OsgEarthNet.uav[37] utilizationEnergyOverdrawMaintenance 0
scalar OsgEarthNet.uav[37] utilizationCountMissions 32
scalar OsgEarthNet.uav[37] utilizationCountManeuversMission 312
scalar OsgEarthNet.uav[37] utilizationCountManeuversMaintenance 64
scalar OsgEarthNet.uav[37] utilizationCountChargeState 32
scalar OsgEarthNet.uav[37] utilizationCountOverdrawnAfterMission 0
scalar OsgEarthNet.uav[37] utilizationCountIdleState 32
scalar OsgEarthNet.uav[37] utilizationFail 0
scalar OsgEarthNet.uav[37] simulationTime 259200
scalar OsgEarthNet.uav[38] utilizationSecMission 23813.383428292
scalar OsgEarthNet.uav[38] utilizationSecMaintenance 15647.719566002
scalar OsgEarthNet.uav[38] utilizationSecCharge 145670
scalar OsgEarthNet.uav[38] utilizationSecIdle 74068.896005706
scalar OsgEarthNet.uav[38] utilizationEnergyMission 110589.93995667
scalar OsgEarthNet.uav[38] utilizationEnergyMaintenance 72927.286052704
scalar OsgEarthNet.uav[38] utilizationEnergyCharge 183053.61035156
scalar OsgEarthNet.uav[38] utilizationEnergyOverdrawMission 0
scalar OsgEarthNet.uav[38] utilizationEnergyOverdrawMaintenance 0
scalar OsgEarthNet.uav[38] utilizationCountMissions 40
scalar OsgEarthNet.uav[38] utilizationCountManeuversMission 394
scalar OsgEarthNet.uav[38] utilizationCountManeuversMaintenance 80
scalar OsgEarthNet.uav[38] utilizationCountChargeState 40
scalar OsgEarthNet.uav[38] utilizationCountOverdrawnAfterMission 0
scalar OsgEarthNet.uav[38] utilizationCountIdleState 41
scalar OsgEarthNet.uav[38] utilizationFail 0
scalar OsgEarthNet.uav[38] simulationTime 259200
scalar OsgEarthNet.uav[39] utilizationSecMission 27873.182432746
scalar OsgEarthNet.uav[39] utilizationSecMaintenance 16585.014322882
scalar OsgEarthNet.uav[39] utilizationSecCharge 163480
scalar OsgEarthNet.uav[39] utilizationSecIdle 51261.802244372
scalar OsgEarthNet.uav[39] utilizationEnergyMission 128281.66668701
scalar OsgEarthNet.uav[39] utilizationEnergyMaintenance 76714.930778503
scalar OsgEarthNet.uav[39] utilizationEnergyCharge 204748.96923828
scalar OsgEarthNet.uav[39] utilizationEnergyOverdrawMission 0
scalar OsgEarthNet.uav[39] utilizationEnergyOverdrawMaintenance 0
scalar OsgEarthNet.uav[39] utilizationCountMissions 45
scalar OsgEarthNet.uav[39] utilizationCountManeuversMission 453
scalar OsgEarthNet.uav[39] utilizationCountManeuversMaintenance 90
scalar OsgEarthNet.uav[39] utilizationCountChargeState 45
scalar OsgEarthNet.uav[39] utilizationCountOverdrawnAfterMission 0
scalar OsgEarthNet.uav[39] utilizationCountIdleState 46
scalar OsgEarthNet.uav[39] utilizationFail 0
scalar OsgEarthNet.uav[39] simulationTime 259200
scalar OsgEarthNet.uav[40] utilizationSecMission 27647.532077324
scalar OsgEarthNet.uav[40] utilizationSecMaintenance 18705.514932373
scalar OsgEarthNet.uav[40] utilizationSecCharge 168781.68040181
scalar OsgEarthNet.uav[40] utilizationSecIdle 44065.271588494
scalar OsgEarthNet.uav[40] utilizationEnergyMission 129080.92747498
scalar OsgEarthNet.uav[40] utilizationEnergyMaintenance 87301.499794006
scalar OsgEarthNet.uav[40] utilizationEnergyCharge 212773.14978027
scalar OsgEarthNet.uav[40] utilizationEnergyOverdrawMission 0
scalar OsgEarthNet.uav[40] utilizationEnergyOverdrawMaintenance 0
scalar OsgEarthNet.uav[40] utilizationCountMissions 47
scalar OsgEarthNet.uav[40] utilizationCountManeuversMission 456
scalar OsgEarthNet.uav[40] utilizationCountManeuversMaintenance 94
scalar OsgEarthNet.uav[40] utilizationCountChargeState 47
scalar OsgEarthNet.uav[40] utilizationCountOverdrawnAfterMission 0
scalar OsgEarthNet.uav[40] utilizationCountIdleState 46
scalar OsgEarthNet.uav[40] utilizationFail 0
scalar OsgEarthNet.uav[40] simulationTime 259200
scalar OsgEarthNet.uav[41] utilizationSecMission 17055.477806288
scalar OsgEarthNet.uav[41] utilizationSecMaintenance 14381.427058171
scalar OsgEarthNet.uav[41] utilizationSecCharge 117050
scalar OsgEarthNet.uav[41] utilizationSecIdle 110713.09413554
scalar OsgEarthNet.uav[41] utilizationEnergyMission 80566.867866516
scalar OsgEarthNet.uav[41] utilizationEnergyMaintenance 67783.392162323
scalar OsgEarthNet.uav[41] utilizationEnergyCharge 148092.54882812
scalar OsgEarthNet.uav[41] utilizationEnergyOverdrawMission 0
scalar OsgEarthNet.uav[41] utilizationEnergyOverdrawMaintenance 0
scalar OsgEarthNet.uav[41] utilizationCountMissions 32
scalar OsgEarthNet.uav[41] utilizationCountManeuversMission 274
scalar OsgEarthNet.uav[41] utilizationCountManeuversMaintenance 64
scalar OsgEarthNet.uav[41] utilizationCountChargeState 32
scalar OsgEarthNet.uav[41] utilizationCountOverdrawnAfterMission 0
scalar OsgEarthNet.uav[41] utilizationCountIdleState 32
scalar OsgEarthNet.uav[41] utilizationFail 0
scalar OsgEarthNet.uav[41] simulationTime 259200
scalar OsgEarthNet.uav[42] utilizationSecMission 24498.694360229
scalar OsgEarthNet.uav[42] utilizationSecMaintenance 17988.853648571
scalar OsgEarthNet.uav[42] utilizationSecCharge 155162.61417716
scalar OsgEarthNet.uav[42] utilizationSecIdle 61549.83681404
scalar OsgEarthNet.uav[42] utilizationEnergyMission 113112.96457672
scalar OsgEarthNet.uav[42] utilizationEnergyMaintenance 81957.668769836
scalar OsgEarthNet.uav[42] utilizationEnergyCharge 194713.82080078
scalar OsgEarthNet.uav[42] utilizationEnergyOverdrawMission 0
scalar OsgEarthNet.uav[42] utilizationEnergyOverdrawMaintenance 0
scalar OsgEarthNet.uav[42] utilizationCountMissions 43
scalar OsgEarthNet.uav[42] utilizationCountManeuversMission 397
scalar OsgEarthNet.uav[42] utilizationCountManeuversMaintenance 86
scalar OsgEarthNet.uav[42] utilizationCountChargeState 43
scalar OsgEarthNet.uav[42] utilizationCountOverdrawnAfterMission 0
scalar OsgEarthNet.uav[42] utilizationCountIdleState 41
scalar OsgEarthNet.uav[42] utilizationFail 0
scalar OsgEarthNet.uav[42] simulationTime 259200
scalar OsgEarthNet.uav[43] utilizationSecMission 25428.030071483
scalar OsgEarthNet.uav[43] utilizationSecMaintenance 19088.562452138
scalar OsgEarthNet.uav[43] utilizationSecCharge 160161.40647638
scalar OsgEarthNet.uav[43] utilizationSecIdle 54522
scalar OsgEarthNet.uav[43] utilizationEnergyMission 117294.45314026
scalar OsgEarthNet.uav[43] utilizationEnergyMaintenance 88743.463375092
scalar OsgEarthNet.uav[43] utilizationEnergyCharge 201323.79034424
scalar OsgEarthNet.uav[43] utilizationEnergyOverdrawMission 0
scalar OsgEarthNet.uav[43] utilizationEnergyOverdrawMaintenance 0
scalar OsgEarthNet.uav[43] utilizationCountMissions 45
scalar OsgEarthNet.uav[43] utilizationCountManeuversMission 412
scalar OsgEarthNet.uav[43] utilizationCountManeuversMaintenance 89
scalar OsgEarthNet.uav[43] utilizationCountChargeState 45
scalar OsgEarthNet.uav[43] utilizationCountOverdrawnAfterMission 0
scalar OsgEarthNet.uav[43] utilizationCountIdleState 43
scalar OsgEarthNet.uav[43] utilizationFail 0
scalar OsgEarthNet.uav[43] simulationTime 259200
scalar OsgEarthNet.uav[44] utilizationSecMission 29971.550059889
scalar OsgEarthNet.uav[44] utilizationSecMaintenance 20296.448940111
scalar OsgEarthNet.uav[44] utilizationSecCharge 181180
scalar OsgEarthNet.uav[44] utilizationSecIdle 27752
scalar OsgEarthNet.uav[44] utilizationEnergyMission 138362.58189392
scalar OsgEarthNet.uav[44] utilizationEnergyMaintenance 93223.512336321
scalar OsgEarthNet.uav[44] utilizationEnergyCharge 227731.92041016
scalar OsgEarthNet.uav[44] utilizationEnergyOverdrawMission 0
scalar OsgEarthNet.uav[44] utilizationEnergyOverdrawMaintenance 0
scalar OsgEarthNet.uav[44] utilizationCountMissions 51
scalar OsgEarthNet.uav[44] utilizationCountManeuversMission 496
scalar OsgEarthNet.uav[44] utilizationCountManeuversMaintenance 101
scalar OsgEarthNet.uav[44] utilizationCountChargeState 50
scalar OsgEarthNet.uav[44] utilizationCountOverdrawnAfterMission 0
scalar OsgEarthNet.uav[44] utilizationCountIdleState 49
scalar OsgEarthNet.uav[44] utilizationFail 0
scalar OsgEarthNet.uav[44] simulationTime 259200
scalar OsgEarthNet.uav[45] utilizationSecMission 26169.920227487
scalar OsgEarthNet.uav[45] utilizationSecMaintenance 17712.203222662
scalar OsgEarthNet.uav[45] utilizationSecCharge 159300
scalar OsgEarthNet.uav[45] utilizationSecIdle 56017.87554985
scalar OsgEarthNet.uav[45] utilizationEnergyMission 120631.00090418
scalar OsgEarthNet.uav[45] utilizationEnergyMaintenance 81616.935760498
scalar OsgEarthNet.uav[45] utilizationEnergyCharge 200616.06347656
scalar OsgEarthNet.uav[45] utilizationEnergyOverdrawMission 0
scalar OsgEarthNet.uav[45] utilizationEnergyOverdrawMaintenance 0
scalar OsgEarthNet.uav[45] utilizationCountMissions 44
scalar OsgEarthNet.uav[45] utilizationCountManeuversMission 420
scalar OsgEarthNet.uav[45] utilizationCountManeuversMaintenance 89
scalar OsgEarthNet.uav[45] utilizationCountChargeState 44
scalar OsgEarthNet.uav[45] utilizationCountOverdrawnAfterMission 0
scalar OsgEarthNet.uav[45] utilizationCountIdleState 41
scalar OsgEarthNet.uav[45] utilizationFail 0
scalar OsgEarthNet.uav[45] simulationTime 259200
scalar OsgEarthNet.uav[46] utilizationSecMission 28943.059639032
scalar OsgEarthNet.uav[46] utilizationSecMaintenance 19447.23804493
scalar OsgEarthNet.uav[46] utilizationSecCharge 176093.26107617
scalar OsgEarthNet.uav[46] utilizationSecIdle 34716.440239872
scalar OsgEarthNet.uav[46] utilizationEnergyMission 133155.94160461
scalar OsgEarthNet.uav[46] utilizationEnergyMaintenance 90316.034160614
scalar OsgEarthNet.uav[46] utilizationEnergyCharge 221666.08984375
scalar OsgEarthNet.uav[46] utilizationEnergyOverdrawMission 0
scalar OsgEarthNet.uav[46] utilizationEnergyOverdrawMaintenance 0
scalar OsgEarthNet.uav[46] utilizationCountMissions 49
scalar OsgEarthNet.uav[46] utilizationCountManeuversMission 473
scalar OsgEarthNet.uav[46] utilizationCountManeuversMaintenance 98
scalar OsgEarthNet.uav[46] utilizationCountChargeState 49
scalar OsgEarthNet.uav[46] utilizationCountOverdrawnAfterMission 0
scalar OsgEarthNet.uav[46] utilizationCountIdleState 48
scalar OsgEarthNet.uav[46] utilizationFail 0
scalar OsgEarthNet.uav[46] simulationTime 259200
scalar OsgEarthNet.uav[47] utilizationSecMission 25939.480677572
scalar OsgEarthNet.uav[47] utilizationSecMaintenance 19416.985123739
scalar OsgEarthNet.uav[47] utilizationSecCharge 164247.07099614
scalar OsgEarthNet.uav[47] utilizationSecIdle 49596.462202546
scalar OsgEarthNet.uav[47] utilizationEnergyMission 121213.95376587
scalar OsgEarthNet.uav[47] utilizationEnergyMaintenance 90384.80632782
scalar OsgEarthNet.uav[47] utilizationEnergyCharge 207671.34350586
scalar OsgEarthNet.uav[47] utilizationEnergyOverdrawMission 0
scalar OsgEarthNet.uav[47] utilizationEnergyOverdrawMaintenance 0
scalar OsgEarthNet.uav[47] utilizationCountMissions 46
scalar OsgEarthNet.uav[47] utilizationCountManeuversMission 425
scalar OsgEarthNet.uav[47] utilizationCountManeuversMaintenance 92
scalar OsgEarthNet.uav[47] utilizationCountChargeState 46
scalar OsgEarthNet.uav[47] utilizationCountOverdrawnAfterMission 0
scalar OsgEarthNet.uav[47] utilizationCountIdleState 40
scalar OsgEarthNet.uav[47] utilizationFail 0
scalar OsgEarthNet.uav[47] simulationTime 259200
scalar OsgEarthNet.uav[48] utilizationSecMission 30321.904571826
scalar OsgEarthNet.uav[48] utilizationSecMaintenance 19835.903142575
scalar OsgEarthNet.uav[48] utilizationSecCharge 182530.1912856
scalar OsgEarthNet.uav[48] utilizationSecIdle 26512
scalar OsgEarthNet.uav[48] utilizationEnergyMission 139535.67088515
scalar OsgEarthNet.uav[48] utilizationEnergyMaintenance 91722.923988342
scalar OsgEarthNet.uav[48] utilizationEnergyCharge 229893.15478516
scalar OsgEarthNet.uav[48] utilizationEnergyOverdrawMission 0
scalar OsgEarthNet.uav[48] utilizationEnergyOverdrawMaintenance 0
scalar OsgEarthNet.uav[48] utilizationCountMissions 51
scalar OsgEarthNet.uav[48] utilizationCountManeuversMission 491
scalar OsgEarthNet.uav[48] utilizationCountManeuversMaintenance 101
scalar OsgEarthNet.uav[48] utilizationCountChargeState 51
scalar OsgEarthNet.uav[48] utilizationCountOverdrawnAfterMission 0
scalar OsgEarthNet.uav[48] utilizationCountIdleState 47
scalar OsgEarthNet.uav[48] utilizationFail 0
scalar OsgEarthNet.uav[48] simulationTime 259200
scalar OsgEarthNet.uav[49] utilizationSecMission 27686.899072897
scalar OsgEarthNet.uav[49] utilizationSecMaintenance 19483.313483384
scalar OsgEarthNet.uav[49] utilizationSecCharge 170773.88870303
scalar OsgEarthNet.uav[49] utilizationSecIdle 41255.897740689
scalar OsgEarthNet.uav[49] utilizationEnergyMission 127455.7522583
scalar OsgEarthNet.uav[49] utilizationEnergyMaintenance 89793.725540161
scalar OsgEarthNet.uav[49] utilizationEnergyCharge 215072.28051758
scalar OsgEarthNet.uav[49] utilizationEnergyOverdrawMission 0
scalar OsgEarthNet.uav[49] utilizationEnergyOverdrawMaintenance 0
scalar OsgEarthNet.uav[49] utilizationCountMissions 48
scalar OsgEarthNet.uav[49] utilizationCountManeuversMission 459
scalar OsgEarthNet.uav[49] utilizationCountManeuversMaintenance 96
scalar OsgEarthNet.uav[49] utilizationCountChargeState 48
scalar OsgEarthNet.uav[49] utilizationCountOverdrawnAfterMission 0
scalar OsgEarthNet.uav[49] utilizationCountIdleState 40
scalar OsgEarthNet.uav[49] utilizationFail 0
scalar OsgEarthNet.uav[49] simulationTime 259200
scalar OsgEarthNet.uav[50] utilizationSecMission 29788.192652053
scalar OsgEarthNet.uav[50] utilizationSecMaintenance 19151.752129078
scalar OsgEarthNet.uav[50] utilizationSecCharge 177855.43313406
scalar OsgEarthNet.uav[50] utilizationSecIdle 32404.621084814
scalar OsgEarthNet.uav[50] utilizationEnergyMission 137453.21855164
scalar OsgEarthNet.uav[50] utilizationEnergyMaintenance 88552.910892487
scalar OsgEarthNet.uav[50] utilizationEnergyCharge 224401.72729492
scalar OsgEarthNet.uav[50] utilizationEnergyOverdrawMission 0
scalar OsgEarthNet.uav[50] utilizationEnergyOverdrawMaintenance 0
scalar OsgEarthNet.uav[50] utilizationCountMissions 50
scalar OsgEarthNet.uav[50] utilizationCountManeuversMission 478
scalar OsgEarthNet.uav[50] utilizationCountManeuversMaintenance 100
scalar OsgEarthNet.uav[50] utilizationCountChargeState 50
scalar OsgEarthNet.uav[50] utilizationCountOverdrawnAfterMission 0
scalar OsgEarthNet.uav[50] utilizationCountIdleState 46
scalar OsgEarthNet.uav[50] utilizationFail 0
scalar OsgEarthNet.uav[50] simulationTime 259200
scalar OsgEarthNet.uav[51] utilizationSecMission 26922.485306673
scalar OsgEarthNet.uav[51] utilizationSecMaintenance 19762.598630814
scalar OsgEarthNet.uav[51] utilizationSecCharge 169412.82787757
scalar OsgEarthNet.uav[51] utilizationSecIdle 43102.087184941
scalar OsgEarthNet.uav[51] utilizationEnergyMission 124542.24248123
scalar OsgEarthNet.uav[51] utilizationEnergyMaintenance 91339.210178375
scalar OsgEarthNet.uav[51] utilizationEnergyCharge 212897.46679688
scalar OsgEarthNet.uav[51] utilizationEnergyOverdrawMission 0
scalar OsgEarthNet.uav[51] utilizationEnergyOverdrawMaintenance 0
scalar OsgEarthNet.uav[51] utilizationCountMissions 48
scalar OsgEarthNet.uav[51] utilizationCountManeuversMission 436
scalar OsgEarthNet.uav[51] utilizationCountManeuversMaintenance 96
scalar OsgEarthNet.uav[51] utilizationCountChargeState 48
scalar OsgEarthNet.uav[51] utilizationCountOverdrawnAfterMission 0
scalar OsgEarthNet.uav[51] utilizationCountIdleState 46
scalar OsgEarthNet.uav[51] utilizationFail 0
scalar OsgEarthNet.uav[51] simulationTime 259200
scalar OsgEarthNet.uav[52] utilizationSecMission 28171.686377733
scalar OsgEarthNet.uav[52] utilizationSecMaintenance 21883.216877456
scalar OsgEarthNet.uav[52] utilizationSecCharge 182991.57041358
scalar OsgEarthNet.uav[52] utilizationSecIdle 26153.525331232
scalar OsgEarthNet.uav[52] utilizationEnergyMission 131028.81550598
scalar OsgEarthNet.uav[52] utilizationEnergyMaintenance 101044.39404297
scalar OsgEarthNet.uav[52] utilizationEnergyCharge 232218.41064453
scalar OsgEarthNet.uav[52] utilizationEnergyOverdrawMission 0
scalar OsgEarthNet.uav[52] utilizationEnergyOverdrawMaintenance 0
scalar OsgEarthNet.uav[52] utilizationCountMissions 51
scalar OsgEarthNet.uav[52] utilizationCountManeuversMission 464
scalar OsgEarthNet.uav[52] utilizationCountManeuversMaintenance 102
scalar OsgEarthNet.uav[52] utilizationCountChargeState 51
scalar OsgEarthNet.uav[52] utilizationCountOverdrawnAfterMission 0
scalar OsgEarthNet.uav[52] utilizationCountIdleState 41
scalar OsgEarthNet.uav[52] utilizationFail 0
scalar OsgEarthNet.uav[52] simulationTime 259200
scalar OsgEarthNet.uav[53] utilizationSecMission 29864.320994729
scalar OsgEarthNet.uav[53] utilizationSecMaintenance 19673.061823516
scalar OsgEarthNet.uav[53] utilizationSecCharge 180832.04575252
scalar OsgEarthNet.uav[53] utilizationSecIdle 28830.570429238
scalar OsgEarthNet.uav[53] utilizationEnergyMission 136506.95729065
scalar OsgEarthNet.uav[53] utilizationEnergyMaintenance 90574.908042908
scalar OsgEarthNet.uav[53] utilizationEnergyCharge 227571.33691406
scalar OsgEarthNet.uav[53] utilizationEnergyOverdrawMission 0
scalar OsgEarthNet.uav[53] utilizationEnergyOverdrawMaintenance 0
scalar OsgEarthNet.uav[53] utilizationCountMissions 50
scalar OsgEarthNet.uav[53] utilizationCountManeuversMission 489
scalar OsgEarthNet.uav[53] utilizationCountManeuversMaintenance 100
scalar OsgEarthNet.uav[53] utilizationCountChargeState 50
scalar OsgEarthNet.uav[53] utilizationCountOverdrawnAfterMission 0
scalar OsgEarthNet.uav[53] utilizationCountIdleState 46
scalar OsgEarthNet.uav[53] utilizationFail 0
scalar OsgEarthNet.uav[53] simulationTime 259200
scalar OsgEarthNet.uav[54] utilizationSecMission 28402.309009673
scalar OsgEarthNet.uav[54] utilizationSecMaintenance 22061.067261004
scalar OsgEarthNet.uav[54] utilizationSecCharge 184170
scalar OsgEarthNet.uav[54] utilizationSecIdle 24566.622729323
scalar OsgEarthNet.uav[54] utilizationEnergyMission 130830.87363052
scalar OsgEarthNet.uav[54] utilizationEnergyMaintenance 102053.91239166
scalar OsgEarthNet.uav[54] utilizationEnergyCharge 232372.13305664
scalar OsgEarthNet.uav[54] utilizationEnergyOverdrawMission 0
scalar OsgEarthNet.uav[54] utilizationEnergyOverdrawMaintenance 0
scalar OsgEarthNet.uav[54] utilizationCountMissions 51
scalar OsgEarthNet.uav[54] utilizationCountManeuversMission 466
scalar OsgEarthNet.uav[54] utilizationCountManeuversMaintenance 102
scalar OsgEarthNet.uav[54] utilizationCountChargeState 51
scalar OsgEarthNet.uav[54] utilizationCountOverdrawnAfterMission 0
scalar OsgEarthNet.uav[54] utilizationCountIdleState 40
scalar OsgEarthNet.uav[54] utilizationFail 0
scalar OsgEarthNet.uav[54] simulationTime 259200
scalar OsgEarthNet.uav[55] utilizationSecMission 30386.907781248
scalar OsgEarthNet.uav[55] utilizationSecMaintenance 20976.740997931
scalar OsgEarthNet.uav[55] utilizationSecCharge 183980
scalar OsgEarthNet.uav[55] utilizationSecIdle 23856.350220821
scalar OsgEarthNet.uav[55] utilizationEnergyMission 139048.32147081
scalar OsgEarthNet.uav[55] utilizationEnergyMaintenance 97719.76008606
scalar OsgEarthNet.uav[55] utilizationEnergyCharge 233125.86132812
scalar OsgEarthNet.uav[55] utilizationEnergyOverdrawMission 0
scalar OsgEarthNet.uav[55] utilizationEnergyOverdrawMaintenance 0
scalar OsgEarthNet.uav[55] utilizationCountMissions 51
scalar OsgEarthNet.uav[55] utilizationCountManeuversMission 498
scalar OsgEarthNet.uav[55] utilizationCountManeuversMaintenance 103
scalar OsgEarthNet.uav[55] utilizationCountChargeState 51
scalar OsgEarthNet.uav[55] utilizationCountOverdrawnAfterMission 0
scalar OsgEarthNet.uav[55] utilizationCountIdleState 40
scalar OsgEarthNet.uav[55] utilizationFail 0
scalar OsgEarthNet.uav[55] simulationTime 259200
scalar OsgEarthNet.uav[56] utilizationSecMission 30542.540474212
scalar OsgEarthNet.uav[56] utilizationSecMaintenance 22163.439241683
scalar OsgEarthNet.uav[56] utilizationSecCharge 188880
scalar OsgEarthNet.uav[56] utilizationSecIdle 17614.019284105
scalar OsgEarthNet.uav[56] utilizationEnergyMission 141819.42793274
scalar OsgEarthNet.uav[56] utilizationEnergyMaintenance 101644.0227422
scalar OsgEarthNet.uav[56] utilizationEnergyCharge 240051.47802734
scalar OsgEarthNet.uav[56] utilizationEnergyOverdrawMission 0
scalar OsgEarthNet.uav[56] utilizationEnergyOverdrawMaintenance 0
scalar OsgEarthNet.uav[56] utilizationCountMissions 53
scalar OsgEarthNet.uav[56] utilizationCountManeuversMission 498
scalar OsgEarthNet.uav[56] utilizationCountManeuversMaintenance 106
scalar OsgEarthNet.uav[56] utilizationCountChargeState 52
scalar OsgEarthNet.uav[56] utilizationCountOverdrawnAfterMission 0
scalar OsgEarthNet.uav[56] utilizationCountIdleState 40
scalar OsgEarthNet.uav[56] utilizationFail 0
scalar OsgEarthNet.uav[56] simulationTime 259200
scalar OsgEarthNet.uav[57] utilizationSecMission 28186.841209472
scalar OsgEarthNet.uav[57] utilizationSecMaintenance 22627.894556628
scalar OsgEarthNet.uav[57] utilizationSecCharge 184278.91697768
scalar OsgEarthNet.uav[57] utilizationSecIdle 24106.346256218
scalar OsgEarthNet.uav[57] utilizationEnergyMission 128932.10826874
scalar OsgEarthNet.uav[57] utilizationEnergyMaintenance 104449.98098755
scalar OsgEarthNet.uav[57] utilizationEnergyCharge 233302.05761719
scalar OsgEarthNet.uav[57] utilizationEnergyOverdrawMission 0
scalar OsgEarthNet.uav[57] utilizationEnergyOverdrawMaintenance 0
scalar OsgEarthNet.uav[57] utilizationCountMissions 52
scalar OsgEarthNet.uav[57] utilizationCountManeuversMission 460
scalar OsgEarthNet.uav[57] utilizationCountManeuversMaintenance 104
scalar OsgEarthNet.uav[57] utilizationCountChargeState 52
scalar OsgEarthNet.uav[57] utilizationCountOverdrawnAfterMission 0
scalar OsgEarthNet.uav[57] utilizationCountIdleState 38
scalar OsgEarthNet.uav[57] utilizationFail 0
scalar OsgEarthNet.uav[57] simulationTime 259200
scalar OsgEarthNet.uav[58] utilizationSecMission 29369.390546804
scalar OsgEarthNet.uav[58] utilizationSecMaintenance 22004.585180788
scalar OsgEarthNet.uav[58] utilizationSecCharge 186160
scalar OsgEarthNet.uav[58] utilizationSecIdle 21666.023272408
scalar OsgEarthNet.uav[58] utilizationEnergyMission 135429.96268463
scalar OsgEarthNet.uav[58] utilizationEnergyMaintenance 101489.53795169
scalar OsgEarthNet.uav[58] utilizationEnergyCharge 235711.44799805
scalar OsgEarthNet.uav[58] utilizationEnergyOverdrawMission 0
scalar OsgEarthNet.uav[58] utilizationEnergyOverdrawMaintenance 0
scalar OsgEarthNet.uav[58] utilizationCountMissions 52
scalar OsgEarthNet.uav[58] utilizationCountManeuversMission 497
scalar OsgEarthNet.uav[58] utilizationCountManeuversMaintenance 105
scalar OsgEarthNet.uav[58] utilizationCountChargeState 52
scalar OsgEarthNet.uav[58] utilizationCountOverdrawnAfterMission 0
scalar OsgEarthNet.uav[58] utilizationCountIdleState 41
scalar OsgEarthNet.uav[58] utilizationFail 0
scalar OsgEarthNet.uav[58] simulationTime 259200
scalar OsgEarthNet.uav[59] utilizationSecMission 30202.499437984
scalar OsgEarthNet.uav[59] utilizationSecMaintenance 21874.694783983
scalar OsgEarthNet.uav[59] utilizationSecCharge 189146.28088515
scalar OsgEarthNet.uav[59] utilizationSecIdle 17976.523892883
scalar OsgEarthNet.uav[59] utilizationEnergyMission 140504.34365082
scalar OsgEarthNet.uav[59] utilizationEnergyMaintenance 102380.32969284
scalar OsgEarthNet.uav[59] utilizationEnergyCharge 242536.32958984
scalar OsgEarthNet.uav[59] utilizationEnergyOverdrawMission 0
scalar OsgEarthNet.uav[59] utilizationEnergyOverdrawMaintenance 0
scalar OsgEarthNet.uav[59] utilizationCountMissions 52
scalar OsgEarthNet.uav[59] utilizationCountManeuversMission 492
scalar OsgEarthNet.uav[59] utilizationCountManeuversMaintenance 104
scalar OsgEarthNet.uav[59] utilizationCountChargeState 52
scalar OsgEarthNet.uav[59] utilizationCountOverdrawnAfterMission 0
scalar OsgEarthNet.uav[59] utilizationCountIdleState 37
scalar OsgEarthNet.uav[59] utilizationFail 0
scalar OsgEarthNet.uav[59] simulationTime 259200
scalar OsgEarthNet.cs[0] usedPower 2118359.7097868
scalar OsgEarthNet.cs[0] chargedPower 2118359.7097868
scalar OsgEarthNet.cs[0] chargedMobileNodes 440
scalar OsgEarthNet.cs[0] reservations 476
scalar OsgEarthNet.cs[1] usedPower 3038985.6018909
scalar OsgEarthNet.cs[1] chargedPower 3038985.6018909
scalar OsgEarthNet.cs[1] chargedMobileNodes 604
scalar OsgEarthNet.cs[1] reservations 660
scalar OsgEarthNet.cs[2] usedPower 4850016.3342905
scalar OsgEarthNet.cs[2] chargedPower 4850016.3342905
scalar OsgEarthNet.cs[2] chargedMobileNodes 1005
scalar OsgEarthNet.cs[2] reservations 1075

