version 2
run Szenario_Hotel_Gabelbach-61-20180710-03:14:43-32232
attr configname Szenario_Hotel_Gabelbach
attr datetime 20180710-03:14:43
attr experiment Szenario_Hotel_Gabelbach
attr inifile omnetpp.ini
attr iterationvars "$numUAVs=50, $replM=0"
attr iterationvarsf numUAVs=50,replM=0-
attr measurement "$numUAVs=50, $replM=0"
attr network OsgEarthNet
attr processid 32232
attr repetition 13
attr replication #13
attr resultdir results
attr runnumber 61
attr seedset 61
itervar numUAVs 50
itervar replM 0
param *.osgEarthScene.scene "\"Szenario_Hotel_Gabelbach.earth\""
param *.playgroundLatitude 50.6830269
param *.playgroundLongitude 10.8538055
param *.playgroundWidth 3500m
param *.playgroundHeight 3500m
param *.numCSs 3
param *.cs[0].posX 3537m
param *.cs[0].posY 965m
param *.cs[0].posZ 538m
param *.cs[1].posX 312m
param *.cs[1].posY 1262m
param *.cs[1].posZ 539m
param *.cs[2].posX 2185m
param *.cs[2].posY 3026m
param *.cs[2].posZ 777m
param *.cs[3].posX 10m
param *.cs[3].posY 2200m
param *.cs[3].posZ 560m
param *.cs[4].posX 750m
param *.cs[4].posY 200m
param *.cs[4].posZ 540m
param *.cs[5].posX 2450m
param *.cs[5].posY 180m
param *.cs[5].posZ 524m
param *.cs[6].posX 3140m
param *.cs[6].posY 1790m
param *.cs[6].posZ 606m
param *.numUAVs 50
param *.uav[*].replacementMethod 0
param *.*.timeStep 10s
param *.uav[*].commandPreviewCommandCount 20
param *.missionControl.missionFiles "\"missions\\\\Szenario_WB_Hotel_Gabelbach_Mission_Hotel.waypoints,missions\\\\Szenario_WB_Hotel_Gabelbach_Mission_Kickelhahn.waypoints,missions\\\\Szenario_WB_Hotel_Gabelbach_Mission_Ilmenau_Sportplatz.waypoints,missions\\\\Szenario_WB_Hotel_Gabelbach_Mission_Manebach_Mitte.waypoints,missions\\\\Szenario_WB_Hotel_Gabelbach_Mission_Manebach_Sued.waypoints\""
param *.missionControl.missionFiles "\"missions\\\\Szenario_WB_Hotel_Gabelbach_Mission_Hotel.waypoints,missions\\\\Szenario_WB_Hotel_Gabelbach_Mission_Kickelhahn.waypoints,missions\\\\Szenario_WB_Hotel_Gabelbach_Mission_Ilmenau_Sportplatz.waypoints,missions\\\\Szenario_WB_Hotel_Gabelbach_Mission_Manebach_Mitte.waypoints,missions\\\\Szenario_WB_Hotel_Gabelbach_Mission_Manebach_Sued.waypoints,missions\\\\Szenario_WB_Hotel_Gabelbach_Hover_HoheSchlaufe.waypoints,missions\\\\Szenario_WB_Hotel_Gabelbach_Hover_Kickelhahn.waypoints,missions\\\\Szenario_WB_Hotel_Gabelbach_Hover_Gabelbachskopf.waypoints,missions\\\\Szenario_WB_Hotel_Gabelbach_Hover_Dachskopf.waypoints\""
param *.uav[0].startX 3537m
param *.uav[0].startY 965m
param *.uav[0].startZ 539m
param *.uav[1].startX 312m
param *.uav[1].startY 1262m
param *.uav[1].startZ 540m
param *.uav[2].startX 2185m
param *.uav[2].startY 3026m
param *.uav[2].startZ 778m
param *.uav[3].startX 3537m
param *.uav[3].startY 965m
param *.uav[3].startZ 539m
param *.uav[4].startX 312m
param *.uav[4].startY 1262m
param *.uav[4].startZ 540m
param *.uav[5].startX 2185m
param *.uav[5].startY 3026m
param *.uav[5].startZ 778m
param *.uav[6].startX 3537m
param *.uav[6].startY 965m
param *.uav[6].startZ 539m
param *.uav[7].startX 312m
param *.uav[7].startY 1262m
param *.uav[7].startZ 540m
param *.uav[8].startX 2185m
param *.uav[8].startY 3026m
param *.uav[8].startZ 778m
param *.uav[9].startX 3537m
param *.uav[9].startY 965m
param *.uav[9].startZ 539m
param *.uav[10].startX 3537m
param *.uav[10].startY 965m
param *.uav[10].startZ 539m
param *.uav[11].startX 312m
param *.uav[11].startY 1262m
param *.uav[11].startZ 540m
param *.uav[12].startX 2185m
param *.uav[12].startY 3026m
param *.uav[12].startZ 778m
param *.uav[13].startX 3537m
param *.uav[13].startY 965m
param *.uav[13].startZ 539m
param *.uav[14].startX 312m
param *.uav[14].startY 1262m
param *.uav[14].startZ 540m
param *.uav[15].startX 2185m
param *.uav[15].startY 3026m
param *.uav[15].startZ 778m
param *.uav[16].startX 3537m
param *.uav[16].startY 965m
param *.uav[16].startZ 539m
param *.uav[17].startX 312m
param *.uav[17].startY 1262m
param *.uav[17].startZ 540m
param *.uav[18].startX 2185m
param *.uav[18].startY 3026m
param *.uav[18].startZ 778m
param *.uav[19].startX 3537m
param *.uav[19].startY 965m
param *.uav[19].startZ 539m
param *.uav[20].startX 3537m
param *.uav[20].startY 965m
param *.uav[20].startZ 539m
param *.uav[21].startX 312m
param *.uav[21].startY 1262m
param *.uav[21].startZ 540m
param *.uav[22].startX 2185m
param *.uav[22].startY 3026m
param *.uav[22].startZ 778m
param *.uav[23].startX 3537m
param *.uav[23].startY 965m
param *.uav[23].startZ 539m
param *.uav[24].startX 312m
param *.uav[24].startY 1262m
param *.uav[24].startZ 540m
param *.uav[25].startX 2185m
param *.uav[25].startY 3026m
param *.uav[25].startZ 778m
param *.uav[26].startX 3537m
param *.uav[26].startY 965m
param *.uav[26].startZ 539m
param *.uav[27].startX 312m
param *.uav[27].startY 1262m
param *.uav[27].startZ 540m
param *.uav[28].startX 2185m
param *.uav[28].startY 3026m
param *.uav[28].startZ 778m
param *.uav[29].startX 3537m
param *.uav[29].startY 965m
param *.uav[29].startZ 539m
param *.uav[30].startX 3537m
param *.uav[30].startY 965m
param *.uav[30].startZ 539m
param *.uav[31].startX 312m
param *.uav[31].startY 1262m
param *.uav[31].startZ 540m
param *.uav[32].startX 2185m
param *.uav[32].startY 3026m
param *.uav[32].startZ 778m
param *.uav[33].startX 3537m
param *.uav[33].startY 965m
param *.uav[33].startZ 539m
param *.uav[34].startX 312m
param *.uav[34].startY 1262m
param *.uav[34].startZ 540m
param *.uav[35].startX 2185m
param *.uav[35].startY 3026m
param *.uav[35].startZ 778m
param *.uav[36].startX 3537m
param *.uav[36].startY 965m
param *.uav[36].startZ 539m
param *.uav[37].startX 312m
param *.uav[37].startY 1262m
param *.uav[37].startZ 540m
param *.uav[38].startX 2185m
param *.uav[38].startY 3026m
param *.uav[38].startZ 778m
param *.uav[39].startX 3537m
param *.uav[39].startY 965m
param *.uav[39].startZ 539m
param *.uav[40].startX 3537m
param *.uav[40].startY 965m
param *.uav[40].startZ 539m
param *.uav[41].startX 312m
param *.uav[41].startY 1262m
param *.uav[41].startZ 540m
param *.uav[42].startX 2185m
param *.uav[42].startY 3026m
param *.uav[42].startZ 778m
param *.uav[43].startX 3537m
param *.uav[43].startY 965m
param *.uav[43].startZ 539m
param *.uav[44].startX 312m
param *.uav[44].startY 1262m
param *.uav[44].startZ 540m
param *.uav[45].startX 2185m
param *.uav[45].startY 3026m
param *.uav[45].startZ 778m
param *.uav[46].startX 3537m
param *.uav[46].startY 965m
param *.uav[46].startZ 539m
param *.uav[47].startX 312m
param *.uav[47].startY 1262m
param *.uav[47].startZ 540m
param *.uav[48].startX 2185m
param *.uav[48].startY 3026m
param *.uav[48].startZ 778m
param *.uav[49].startX 3537m
param *.uav[49].startY 965m
param *.uav[49].startZ 539m
param *.uav[50].startX 3537m
param *.uav[50].startY 965m
param *.uav[50].startZ 539m
param *.uav[51].startX 312m
param *.uav[51].startY 1262m
param *.uav[51].startZ 540m
param *.uav[52].startX 2185m
param *.uav[52].startY 3026m
param *.uav[52].startZ 778m
param *.uav[53].startX 3537m
param *.uav[53].startY 965m
param *.uav[53].startZ 539m
param *.uav[54].startX 312m
param *.uav[54].startY 1262m
param *.uav[54].startZ 540m
param *.uav[55].startX 2185m
param *.uav[55].startY 3026m
param *.uav[55].startZ 778m
param *.uav[56].startX 3537m
param *.uav[56].startY 965m
param *.uav[56].startZ 539m
param *.uav[57].startX 312m
param *.uav[57].startY 1262m
param *.uav[57].startZ 540m
param *.uav[58].startX 2185m
param *.uav[58].startY 3026m
param *.uav[58].startZ 778m
param *.uav[59].startX 3537m
param *.uav[59].startY 965m
param *.uav[59].startZ 539m
param *.uav[60].startX 3537m
param *.uav[60].startY 965m
param *.uav[60].startZ 539m
param *.uav[61].startX 312m
param *.uav[61].startY 1262m
param *.uav[61].startZ 540m
param *.uav[62].startX 2185m
param *.uav[62].startY 3026m
param *.uav[62].startZ 778m
param *.uav[63].startX 3537m
param *.uav[63].startY 965m
param *.uav[63].startZ 539m
param *.uav[64].startX 312m
param *.uav[64].startY 1262m
param *.uav[64].startZ 540m
param *.uav[65].startX 2185m
param *.uav[65].startY 3026m
param *.uav[65].startZ 778m
param *.uav[66].startX 3537m
param *.uav[66].startY 965m
param *.uav[66].startZ 539m
param *.uav[67].startX 312m
param *.uav[67].startY 1262m
param *.uav[67].startZ 540m
param *.uav[68].startX 2185m
param *.uav[68].startY 3026m
param *.uav[68].startZ 778m
param *.uav[69].startX 3537m
param *.uav[69].startY 965m
param *.uav[69].startZ 539m
param *.uav[70].startX 3537m
param *.uav[70].startY 965m
param *.uav[70].startZ 539m
param *.uav[71].startX 312m
param *.uav[71].startY 1262m
param *.uav[71].startZ 540m
param *.uav[72].startX 2185m
param *.uav[72].startY 3026m
param *.uav[72].startZ 778m
param *.uav[73].startX 3537m
param *.uav[73].startY 965m
param *.uav[73].startZ 539m
param *.uav[74].startX 312m
param *.uav[74].startY 1262m
param *.uav[74].startZ 540m
param *.uav[75].startX 2185m
param *.uav[75].startY 3026m
param *.uav[75].startZ 778m
param *.uav[76].startX 3537m
param *.uav[76].startY 965m
param *.uav[76].startZ 539m
param *.uav[77].startX 312m
param *.uav[77].startY 1262m
param *.uav[77].startZ 540m
param *.uav[78].startX 2185m
param *.uav[78].startY 3026m
param *.uav[78].startZ 778m
param *.uav[79].startX 3537m
param *.uav[79].startY 965m
param *.uav[79].startZ 539m
param *.uav[80].startX 3537m
param *.uav[80].startY 965m
param *.uav[80].startZ 539m
param *.uav[81].startX 312m
param *.uav[81].startY 1262m
param *.uav[81].startZ 540m
param *.uav[82].startX 2185m
param *.uav[82].startY 3026m
param *.uav[82].startZ 778m
param *.uav[83].startX 3537m
param *.uav[83].startY 965m
param *.uav[83].startZ 539m
param *.uav[84].startX 312m
param *.uav[84].startY 1262m
param *.uav[84].startZ 540m
param *.uav[85].startX 2185m
param *.uav[85].startY 3026m
param *.uav[85].startZ 778m
param *.uav[86].startX 3537m
param *.uav[86].startY 965m
param *.uav[86].startZ 539m
param *.uav[87].startX 312m
param *.uav[87].startY 1262m
param *.uav[87].startZ 540m
param *.uav[88].startX 2185m
param *.uav[88].startY 3026m
param *.uav[88].startZ 778m
param *.uav[89].startX 3537m
param *.uav[89].startY 965m
param *.uav[89].startZ 539m
param *.uav[90].startX 3537m
param *.uav[90].startY 965m
param *.uav[90].startZ 539m
param *.uav[91].startX 312m
param *.uav[91].startY 1262m
param *.uav[91].startZ 540m
param *.uav[92].startX 2185m
param *.uav[92].startY 3026m
param *.uav[92].startZ 778m
param *.uav[93].startX 3537m
param *.uav[93].startY 965m
param *.uav[93].startZ 539m
param *.uav[94].startX 312m
param *.uav[94].startY 1262m
param *.uav[94].startZ 540m
param *.uav[95].startX 2185m
param *.uav[95].startY 3026m
param *.uav[95].startZ 778m
param *.uav[96].startX 3537m
param *.uav[96].startY 965m
param *.uav[96].startZ 539m
param *.uav[97].startX 312m
param *.uav[97].startY 1262m
param *.uav[97].startZ 540m
param *.uav[98].startX 2185m
param *.uav[98].startY 3026m
param *.uav[98].startZ 778m
param *.uav[99].startX 3537m
param *.uav[99].startY 965m
param *.uav[99].startZ 539m
param *.osgEarthScene.scene "\"boston.earth\""
param *.playgroundLatitude 42.3558
param *.playgroundLongitude -71.0677
param *.playgroundWidth 400m
param *.playgroundHeight 200m
param *.channelController.connectionColor "\"#0000FF40\""
param *.channelController.showConnections false
param *.uav[*].modelURL "\"quadrocopter.small.obj.15.scale.0,0,90.rot\""
param *.uav[*].labelColor "\"#FF7C00CC\""
param *.uav[*].label2Color "\"#FF7C00EE\""
param *.uav[*].batteryCapacity 5200mAh
param *.uav[*].batteryRemaining uav[index].batteryCapacity
param *.uav[*].predictionQuantile 0.95
param *.uav[*].replacementMethod 2
param *.uav[*].weightedSumWeight 0.5
param *.cs[*].modelURL "\"chargingstation_v1.osgt.2.scale.0,0,0.rot.0,0,-15e-1.trans\""
param *.cs[*].spotsWaiting 999
param *.cs[*].spotsCharging 999
param *.cs[*].chargeEffectivenessPercentage 100
param *.cs[*].nonLinearPhaseStartPercentage 85
param *.cs[*].chargeCurrent 6.0A
param *.cs[*].prioritizeFastCharge true
param *.missionControl.replacementSearchMethod 0
param *.*.timeStep 9s

scalar OsgEarthNet.uav[0] utilizationSecMission 20079.732827897
scalar OsgEarthNet.uav[0] utilizationSecMaintenance 12059.05751773
scalar OsgEarthNet.uav[0] utilizationSecCharge 117010
scalar OsgEarthNet.uav[0] utilizationSecIdle 110051.20865437
scalar OsgEarthNet.uav[0] utilizationEnergyMission 92376.38010025
scalar OsgEarthNet.uav[0] utilizationEnergyMaintenance 55195.728588104
scalar OsgEarthNet.uav[0] utilizationEnergyCharge 147541.81616211
scalar OsgEarthNet.uav[0] utilizationEnergyOverdrawMission 0
scalar OsgEarthNet.uav[0] utilizationEnergyOverdrawMaintenance 0
scalar OsgEarthNet.uav[0] utilizationCountMissions 32
scalar OsgEarthNet.uav[0] utilizationCountManeuversMission 323
scalar OsgEarthNet.uav[0] utilizationCountManeuversMaintenance 64
scalar OsgEarthNet.uav[0] utilizationCountChargeState 32
scalar OsgEarthNet.uav[0] utilizationCountOverdrawnAfterMission 0
scalar OsgEarthNet.uav[0] utilizationCountIdleState 33
scalar OsgEarthNet.uav[0] utilizationFail 0
scalar OsgEarthNet.uav[0] simulationTime 259200
scalar OsgEarthNet.uav[1] utilizationSecMission 26411.284313728
scalar OsgEarthNet.uav[1] utilizationSecMaintenance 17475.840575243
scalar OsgEarthNet.uav[1] utilizationSecCharge 160630
scalar OsgEarthNet.uav[1] utilizationSecIdle 54682.87411103
scalar OsgEarthNet.uav[1] utilizationEnergyMission 120758.09621429
scalar OsgEarthNet.uav[1] utilizationEnergyMaintenance 81036.100162506
scalar OsgEarthNet.uav[1] utilizationEnergyCharge 201884.50219727
scalar OsgEarthNet.uav[1] utilizationEnergyOverdrawMission 0
scalar OsgEarthNet.uav[1] utilizationEnergyOverdrawMaintenance 0
scalar OsgEarthNet.uav[1] utilizationCountMissions 44
scalar OsgEarthNet.uav[1] utilizationCountManeuversMission 425
scalar OsgEarthNet.uav[1] utilizationCountManeuversMaintenance 88
scalar OsgEarthNet.uav[1] utilizationCountChargeState 44
scalar OsgEarthNet.uav[1] utilizationCountOverdrawnAfterMission 0
scalar OsgEarthNet.uav[1] utilizationCountIdleState 45
scalar OsgEarthNet.uav[1] utilizationFail 0
scalar OsgEarthNet.uav[1] simulationTime 259200
scalar OsgEarthNet.uav[2] utilizationSecMission 26790.231049854
scalar OsgEarthNet.uav[2] utilizationSecMaintenance 17424.055061974
scalar OsgEarthNet.uav[2] utilizationSecCharge 163565.87607413
scalar OsgEarthNet.uav[2] utilizationSecIdle 51419.83681404
scalar OsgEarthNet.uav[2] utilizationEnergyMission 124375.52275848
scalar OsgEarthNet.uav[2] utilizationEnergyMaintenance 81770.557304382
scalar OsgEarthNet.uav[2] utilizationEnergyCharge 206648.04541016
scalar OsgEarthNet.uav[2] utilizationEnergyOverdrawMission 0
scalar OsgEarthNet.uav[2] utilizationEnergyOverdrawMaintenance 0
scalar OsgEarthNet.uav[2] utilizationCountMissions 45
scalar OsgEarthNet.uav[2] utilizationCountManeuversMission 442
scalar OsgEarthNet.uav[2] utilizationCountManeuversMaintenance 90
scalar OsgEarthNet.uav[2] utilizationCountChargeState 45
scalar OsgEarthNet.uav[2] utilizationCountOverdrawnAfterMission 0
scalar OsgEarthNet.uav[2] utilizationCountIdleState 45
scalar OsgEarthNet.uav[2] utilizationFail 0
scalar OsgEarthNet.uav[2] simulationTime 259200
scalar OsgEarthNet.uav[3] utilizationSecMission 31781.972902715
scalar OsgEarthNet.uav[3] utilizationSecMaintenance 17636.724045069
scalar OsgEarthNet.uav[3] utilizationSecCharge 180229.30205222
scalar OsgEarthNet.uav[3] utilizationSecIdle 29552
scalar OsgEarthNet.uav[3] utilizationEnergyMission 146959.67773438
scalar OsgEarthNet.uav[3] utilizationEnergyMaintenance 82742.647006989
scalar OsgEarthNet.uav[3] utilizationEnergyCharge 226928.28466797
scalar OsgEarthNet.uav[3] utilizationEnergyOverdrawMission 0
scalar OsgEarthNet.uav[3] utilizationEnergyOverdrawMaintenance 0
scalar OsgEarthNet.uav[3] utilizationCountMissions 50
scalar OsgEarthNet.uav[3] utilizationCountManeuversMission 514
scalar OsgEarthNet.uav[3] utilizationCountManeuversMaintenance 99
scalar OsgEarthNet.uav[3] utilizationCountChargeState 50
scalar OsgEarthNet.uav[3] utilizationCountOverdrawnAfterMission 0
scalar OsgEarthNet.uav[3] utilizationCountIdleState 50
scalar OsgEarthNet.uav[3] utilizationFail 0
scalar OsgEarthNet.uav[3] simulationTime 259200
scalar OsgEarthNet.uav[4] utilizationSecMission 26084.672345329
scalar OsgEarthNet.uav[4] utilizationSecMaintenance 18797.854050197
scalar OsgEarthNet.uav[4] utilizationSecCharge 165750
scalar OsgEarthNet.uav[4] utilizationSecIdle 48567.472604473
scalar OsgEarthNet.uav[4] utilizationEnergyMission 120790.39012146
scalar OsgEarthNet.uav[4] utilizationEnergyMaintenance 87169.96156311
scalar OsgEarthNet.uav[4] utilizationEnergyCharge 207700.46435547
scalar OsgEarthNet.uav[4] utilizationEnergyOverdrawMission 0
scalar OsgEarthNet.uav[4] utilizationEnergyOverdrawMaintenance 0
scalar OsgEarthNet.uav[4] utilizationCountMissions 46
scalar OsgEarthNet.uav[4] utilizationCountManeuversMission 441
scalar OsgEarthNet.uav[4] utilizationCountManeuversMaintenance 92
scalar OsgEarthNet.uav[4] utilizationCountChargeState 46
scalar OsgEarthNet.uav[4] utilizationCountOverdrawnAfterMission 0
scalar OsgEarthNet.uav[4] utilizationCountIdleState 47
scalar OsgEarthNet.uav[4] utilizationFail 0
scalar OsgEarthNet.uav[4] simulationTime 259200
scalar OsgEarthNet.uav[5] utilizationSecMission 26386.486374701
scalar OsgEarthNet.uav[5] utilizationSecMaintenance 18465.611286037
scalar OsgEarthNet.uav[5] utilizationSecCharge 162541.87807126
scalar OsgEarthNet.uav[5] utilizationSecIdle 51806.023268001
scalar OsgEarthNet.uav[5] utilizationEnergyMission 121264.58201218
scalar OsgEarthNet.uav[5] utilizationEnergyMaintenance 86073.461357117
scalar OsgEarthNet.uav[5] utilizationEnergyCharge 203429.82983398
scalar OsgEarthNet.uav[5] utilizationEnergyOverdrawMission 0
scalar OsgEarthNet.uav[5] utilizationEnergyOverdrawMaintenance 0
scalar OsgEarthNet.uav[5] utilizationCountMissions 46
scalar OsgEarthNet.uav[5] utilizationCountManeuversMission 424
scalar OsgEarthNet.uav[5] utilizationCountManeuversMaintenance 92
scalar OsgEarthNet.uav[5] utilizationCountChargeState 46
scalar OsgEarthNet.uav[5] utilizationCountOverdrawnAfterMission 0
scalar OsgEarthNet.uav[5] utilizationCountIdleState 46
scalar OsgEarthNet.uav[5] utilizationFail 0
scalar OsgEarthNet.uav[5] simulationTime 259200
scalar OsgEarthNet.uav[6] utilizationSecMission 6423.0408400817
scalar OsgEarthNet.uav[6] utilizationSecMaintenance 4506.6429267898
scalar OsgEarthNet.uav[6] utilizationSecCharge 39155.062334344
scalar OsgEarthNet.uav[6] utilizationSecIdle 209115.25289878
scalar OsgEarthNet.uav[6] utilizationEnergyMission 30546.209373474
scalar OsgEarthNet.uav[6] utilizationEnergyMaintenance 20498.562011719
scalar OsgEarthNet.uav[6] utilizationEnergyCharge 50379.392822266
scalar OsgEarthNet.uav[6] utilizationEnergyOverdrawMission 0
scalar OsgEarthNet.uav[6] utilizationEnergyOverdrawMaintenance 0
scalar OsgEarthNet.uav[6] utilizationCountMissions 11
scalar OsgEarthNet.uav[6] utilizationCountManeuversMission 102
scalar OsgEarthNet.uav[6] utilizationCountManeuversMaintenance 22
scalar OsgEarthNet.uav[6] utilizationCountChargeState 11
scalar OsgEarthNet.uav[6] utilizationCountOverdrawnAfterMission 0
scalar OsgEarthNet.uav[6] utilizationCountIdleState 11
scalar OsgEarthNet.uav[6] utilizationFail 0
scalar OsgEarthNet.uav[6] simulationTime 259200
scalar OsgEarthNet.uav[7] utilizationSecMission 29253.461142372
scalar OsgEarthNet.uav[7] utilizationSecMaintenance 18654.397092614
scalar OsgEarthNet.uav[7] utilizationSecCharge 174914.8256788
scalar OsgEarthNet.uav[7] utilizationSecIdle 36377.315086215
scalar OsgEarthNet.uav[7] utilizationEnergyMission 135061.60559082
scalar OsgEarthNet.uav[7] utilizationEnergyMaintenance 86643.060752869
scalar OsgEarthNet.uav[7] utilizationEnergyCharge 219840.79980469
scalar OsgEarthNet.uav[7] utilizationEnergyOverdrawMission 0
scalar OsgEarthNet.uav[7] utilizationEnergyOverdrawMaintenance 0
scalar OsgEarthNet.uav[7] utilizationCountMissions 49
scalar OsgEarthNet.uav[7] utilizationCountManeuversMission 472
scalar OsgEarthNet.uav[7] utilizationCountManeuversMaintenance 98
scalar OsgEarthNet.uav[7] utilizationCountChargeState 49
scalar OsgEarthNet.uav[7] utilizationCountOverdrawnAfterMission 0
scalar OsgEarthNet.uav[7] utilizationCountIdleState 49
scalar OsgEarthNet.uav[7] utilizationFail 0
scalar OsgEarthNet.uav[7] simulationTime 259200
scalar OsgEarthNet.uav[8] utilizationSecMission 25247.510259141
scalar OsgEarthNet.uav[8] utilizationSecMaintenance 14342.444371602
scalar OsgEarthNet.uav[8] utilizationSecCharge 144265.3336172
scalar OsgEarthNet.uav[8] utilizationSecIdle 75344.710752053
scalar OsgEarthNet.uav[8] utilizationEnergyMission 117494.6997757
scalar OsgEarthNet.uav[8] utilizationEnergyMaintenance 65683.942764282
scalar OsgEarthNet.uav[8] utilizationEnergyCharge 182110.22680664
scalar OsgEarthNet.uav[8] utilizationEnergyOverdrawMission 0
scalar OsgEarthNet.uav[8] utilizationEnergyOverdrawMaintenance 0
scalar OsgEarthNet.uav[8] utilizationCountMissions 40
scalar OsgEarthNet.uav[8] utilizationCountManeuversMission 404
scalar OsgEarthNet.uav[8] utilizationCountManeuversMaintenance 80
scalar OsgEarthNet.uav[8] utilizationCountChargeState 40
scalar OsgEarthNet.uav[8] utilizationCountOverdrawnAfterMission 0
scalar OsgEarthNet.uav[8] utilizationCountIdleState 40
scalar OsgEarthNet.uav[8] utilizationFail 0
scalar OsgEarthNet.uav[8] simulationTime 259200
scalar OsgEarthNet.uav[9] utilizationSecMission 2985.1327845989
scalar OsgEarthNet.uav[9] utilizationSecMaintenance 2841.7658291092
scalar OsgEarthNet.uav[9] utilizationSecCharge 19722.231692551
scalar OsgEarthNet.uav[9] utilizationSecIdle 233650.86869374
scalar OsgEarthNet.uav[9] utilizationEnergyMission 13789.60168457
scalar OsgEarthNet.uav[9] utilizationEnergyMaintenance 13161.145858765
scalar OsgEarthNet.uav[9] utilizationEnergyCharge 25499.665039062
scalar OsgEarthNet.uav[9] utilizationEnergyOverdrawMission 0
scalar OsgEarthNet.uav[9] utilizationEnergyOverdrawMaintenance 0
scalar OsgEarthNet.uav[9] utilizationCountMissions 6
scalar OsgEarthNet.uav[9] utilizationCountManeuversMission 48
scalar OsgEarthNet.uav[9] utilizationCountManeuversMaintenance 12
scalar OsgEarthNet.uav[9] utilizationCountChargeState 6
scalar OsgEarthNet.uav[9] utilizationCountOverdrawnAfterMission 0
scalar OsgEarthNet.uav[9] utilizationCountIdleState 6
scalar OsgEarthNet.uav[9] utilizationFail 0
scalar OsgEarthNet.uav[9] simulationTime 259200
scalar OsgEarthNet.uav[10] utilizationSecMission 25370.210374311
scalar OsgEarthNet.uav[10] utilizationSecMaintenance 19253.643976245
scalar OsgEarthNet.uav[10] utilizationSecCharge 165150
scalar OsgEarthNet.uav[10] utilizationSecIdle 49426.144649444
scalar OsgEarthNet.uav[10] utilizationEnergyMission 118525.17142487
scalar OsgEarthNet.uav[10] utilizationEnergyMaintenance 89113.158878326
scalar OsgEarthNet.uav[10] utilizationEnergyCharge 207999.04492188
scalar OsgEarthNet.uav[10] utilizationEnergyOverdrawMission 0
scalar OsgEarthNet.uav[10] utilizationEnergyOverdrawMaintenance 0
scalar OsgEarthNet.uav[10] utilizationCountMissions 45
scalar OsgEarthNet.uav[10] utilizationCountManeuversMission 411
scalar OsgEarthNet.uav[10] utilizationCountManeuversMaintenance 90
scalar OsgEarthNet.uav[10] utilizationCountChargeState 45
scalar OsgEarthNet.uav[10] utilizationCountOverdrawnAfterMission 0
scalar OsgEarthNet.uav[10] utilizationCountIdleState 46
scalar OsgEarthNet.uav[10] utilizationFail 0
scalar OsgEarthNet.uav[10] simulationTime 259200
scalar OsgEarthNet.uav[11] utilizationSecMission 27835.515482208
scalar OsgEarthNet.uav[11] utilizationSecMaintenance 20161.198681682
scalar OsgEarthNet.uav[11] utilizationSecCharge 174554.93222885
scalar OsgEarthNet.uav[11] utilizationSecIdle 36648.352607263
scalar OsgEarthNet.uav[11] utilizationEnergyMission 128507.48937988
scalar OsgEarthNet.uav[11] utilizationEnergyMaintenance 93722.677146912
scalar OsgEarthNet.uav[11] utilizationEnergyCharge 219300.11010742
scalar OsgEarthNet.uav[11] utilizationEnergyOverdrawMission 0
scalar OsgEarthNet.uav[11] utilizationEnergyOverdrawMaintenance 0
scalar OsgEarthNet.uav[11] utilizationCountMissions 49
scalar OsgEarthNet.uav[11] utilizationCountManeuversMission 456
scalar OsgEarthNet.uav[11] utilizationCountManeuversMaintenance 98
scalar OsgEarthNet.uav[11] utilizationCountChargeState 49
scalar OsgEarthNet.uav[11] utilizationCountOverdrawnAfterMission 0
scalar OsgEarthNet.uav[11] utilizationCountIdleState 49
scalar OsgEarthNet.uav[11] utilizationFail 0
scalar OsgEarthNet.uav[11] simulationTime 259200
scalar OsgEarthNet.uav[12] utilizationSecMission 28628.554258582
scalar OsgEarthNet.uav[12] utilizationSecMaintenance 18512.298820077
scalar OsgEarthNet.uav[12] utilizationSecCharge 175410
scalar OsgEarthNet.uav[12] utilizationSecIdle 36649.145921341
scalar OsgEarthNet.uav[12] utilizationEnergyMission 133532.05065918
scalar OsgEarthNet.uav[12] utilizationEnergyMaintenance 86756.644989014
scalar OsgEarthNet.uav[12] utilizationEnergyCharge 220506.15673828
scalar OsgEarthNet.uav[12] utilizationEnergyOverdrawMission 0
scalar OsgEarthNet.uav[12] utilizationEnergyOverdrawMaintenance 0
scalar OsgEarthNet.uav[12] utilizationCountMissions 48
scalar OsgEarthNet.uav[12] utilizationCountManeuversMission 463
scalar OsgEarthNet.uav[12] utilizationCountManeuversMaintenance 96
scalar OsgEarthNet.uav[12] utilizationCountChargeState 48
scalar OsgEarthNet.uav[12] utilizationCountOverdrawnAfterMission 0
scalar OsgEarthNet.uav[12] utilizationCountIdleState 49
scalar OsgEarthNet.uav[12] utilizationFail 0
scalar OsgEarthNet.uav[12] simulationTime 259200
scalar OsgEarthNet.uav[13] utilizationSecMission 26230.017561661
scalar OsgEarthNet.uav[13] utilizationSecMaintenance 20741.448560431
scalar OsgEarthNet.uav[13] utilizationSecCharge 172493.26230379
scalar OsgEarthNet.uav[13] utilizationSecIdle 39735.270574118
scalar OsgEarthNet.uav[13] utilizationEnergyMission 124066.70214844
scalar OsgEarthNet.uav[13] utilizationEnergyMaintenance 97565.540996552
scalar OsgEarthNet.uav[13] utilizationEnergyCharge 217186.45373535
scalar OsgEarthNet.uav[13] utilizationEnergyOverdrawMission 0
scalar OsgEarthNet.uav[13] utilizationEnergyOverdrawMaintenance 0
scalar OsgEarthNet.uav[13] utilizationCountMissions 48
scalar OsgEarthNet.uav[13] utilizationCountManeuversMission 435
scalar OsgEarthNet.uav[13] utilizationCountManeuversMaintenance 96
scalar OsgEarthNet.uav[13] utilizationCountChargeState 48
scalar OsgEarthNet.uav[13] utilizationCountOverdrawnAfterMission 0
scalar OsgEarthNet.uav[13] utilizationCountIdleState 48
scalar OsgEarthNet.uav[13] utilizationFail 0
scalar OsgEarthNet.uav[13] simulationTime 259200
scalar OsgEarthNet.uav[14] utilizationSecMission 25993.593700351
scalar OsgEarthNet.uav[14] utilizationSecMaintenance 20289.930487443
scalar OsgEarthNet.uav[14] utilizationSecCharge 169280
scalar OsgEarthNet.uav[14] utilizationSecIdle 43636.474812206
scalar OsgEarthNet.uav[14] utilizationEnergyMission 120122.26725895
scalar OsgEarthNet.uav[14] utilizationEnergyMaintenance 94130.131835938
scalar OsgEarthNet.uav[14] utilizationEnergyCharge 211423.00683594
scalar OsgEarthNet.uav[14] utilizationEnergyOverdrawMission 0
scalar OsgEarthNet.uav[14] utilizationEnergyOverdrawMaintenance 0
scalar OsgEarthNet.uav[14] utilizationCountMissions 47
scalar OsgEarthNet.uav[14] utilizationCountManeuversMission 438
scalar OsgEarthNet.uav[14] utilizationCountManeuversMaintenance 95
scalar OsgEarthNet.uav[14] utilizationCountChargeState 47
scalar OsgEarthNet.uav[14] utilizationCountOverdrawnAfterMission 0
scalar OsgEarthNet.uav[14] utilizationCountIdleState 48
scalar OsgEarthNet.uav[14] utilizationFail 0
scalar OsgEarthNet.uav[14] simulationTime 259200
scalar OsgEarthNet.uav[15] utilizationSecMission 29478.510192926
scalar OsgEarthNet.uav[15] utilizationSecMaintenance 18132.269193158
scalar OsgEarthNet.uav[15] utilizationSecCharge 176510
scalar OsgEarthNet.uav[15] utilizationSecIdle 35079.219613916
scalar OsgEarthNet.uav[15] utilizationEnergyMission 137389.56575775
scalar OsgEarthNet.uav[15] utilizationEnergyMaintenance 83610.24055361
scalar OsgEarthNet.uav[15] utilizationEnergyCharge 220754.61206055
scalar OsgEarthNet.uav[15] utilizationEnergyOverdrawMission 0
scalar OsgEarthNet.uav[15] utilizationEnergyOverdrawMaintenance 0
scalar OsgEarthNet.uav[15] utilizationCountMissions 49
scalar OsgEarthNet.uav[15] utilizationCountManeuversMission 480
scalar OsgEarthNet.uav[15] utilizationCountManeuversMaintenance 99
scalar OsgEarthNet.uav[15] utilizationCountChargeState 49
scalar OsgEarthNet.uav[15] utilizationCountOverdrawnAfterMission 0
scalar OsgEarthNet.uav[15] utilizationCountIdleState 50
scalar OsgEarthNet.uav[15] utilizationFail 0
scalar OsgEarthNet.uav[15] simulationTime 259200
scalar OsgEarthNet.uav[16] utilizationSecMission 13322.586799092
scalar OsgEarthNet.uav[16] utilizationSecMaintenance 8783.1325892944
scalar OsgEarthNet.uav[16] utilizationSecCharge 79770
scalar OsgEarthNet.uav[16] utilizationSecIdle 157324.27961161
scalar OsgEarthNet.uav[16] utilizationEnergyMission 60534.94468689
scalar OsgEarthNet.uav[16] utilizationEnergyMaintenance 39383.474445343
scalar OsgEarthNet.uav[16] utilizationEnergyCharge 99994.6640625
scalar OsgEarthNet.uav[16] utilizationEnergyOverdrawMission 0
scalar OsgEarthNet.uav[16] utilizationEnergyOverdrawMaintenance 0
scalar OsgEarthNet.uav[16] utilizationCountMissions 22
scalar OsgEarthNet.uav[16] utilizationCountManeuversMission 225
scalar OsgEarthNet.uav[16] utilizationCountManeuversMaintenance 44
scalar OsgEarthNet.uav[16] utilizationCountChargeState 22
scalar OsgEarthNet.uav[16] utilizationCountOverdrawnAfterMission 0
scalar OsgEarthNet.uav[16] utilizationCountIdleState 23
scalar OsgEarthNet.uav[16] utilizationFail 0
scalar OsgEarthNet.uav[16] simulationTime 259200
scalar OsgEarthNet.uav[17] utilizationSecMission 27256.638546025
scalar OsgEarthNet.uav[17] utilizationSecMaintenance 18823.352518977
scalar OsgEarthNet.uav[17] utilizationSecCharge 167310
scalar OsgEarthNet.uav[17] utilizationSecIdle 45810.007934998
scalar OsgEarthNet.uav[17] utilizationEnergyMission 126449.94817379
scalar OsgEarthNet.uav[17] utilizationEnergyMaintenance 86004.612705231
scalar OsgEarthNet.uav[17] utilizationEnergyCharge 210253.22949219
scalar OsgEarthNet.uav[17] utilizationEnergyOverdrawMission 0
scalar OsgEarthNet.uav[17] utilizationEnergyOverdrawMaintenance 0
scalar OsgEarthNet.uav[17] utilizationCountMissions 46
scalar OsgEarthNet.uav[17] utilizationCountManeuversMission 437
scalar OsgEarthNet.uav[17] utilizationCountManeuversMaintenance 93
scalar OsgEarthNet.uav[17] utilizationCountChargeState 46
scalar OsgEarthNet.uav[17] utilizationCountOverdrawnAfterMission 0
scalar OsgEarthNet.uav[17] utilizationCountIdleState 47
scalar OsgEarthNet.uav[17] utilizationFail 0
scalar OsgEarthNet.uav[17] simulationTime 259200
scalar OsgEarthNet.uav[18] utilizationSecMission 26983.056939413
scalar OsgEarthNet.uav[18] utilizationSecMaintenance 19060.102975714
scalar OsgEarthNet.uav[18] utilizationSecCharge 170770
scalar OsgEarthNet.uav[18] utilizationSecIdle 42386.839084873
scalar OsgEarthNet.uav[18] utilizationEnergyMission 125110.56335449
scalar OsgEarthNet.uav[18] utilizationEnergyMaintenance 89307.717910767
scalar OsgEarthNet.uav[18] utilizationEnergyCharge 214331.54174805
scalar OsgEarthNet.uav[18] utilizationEnergyOverdrawMission 0
scalar OsgEarthNet.uav[18] utilizationEnergyOverdrawMaintenance 0
scalar OsgEarthNet.uav[18] utilizationCountMissions 47
scalar OsgEarthNet.uav[18] utilizationCountManeuversMission 438
scalar OsgEarthNet.uav[18] utilizationCountManeuversMaintenance 94
scalar OsgEarthNet.uav[18] utilizationCountChargeState 47
scalar OsgEarthNet.uav[18] utilizationCountOverdrawnAfterMission 0
scalar OsgEarthNet.uav[18] utilizationCountIdleState 48
scalar OsgEarthNet.uav[18] utilizationFail 0
scalar OsgEarthNet.uav[18] simulationTime 259200
scalar OsgEarthNet.uav[19] utilizationSecMission 30407.411765464
scalar OsgEarthNet.uav[19] utilizationSecMaintenance 18336.53281199
scalar OsgEarthNet.uav[19] utilizationSecCharge 178284.5407616
scalar OsgEarthNet.uav[19] utilizationSecIdle 32171.51366095
scalar OsgEarthNet.uav[19] utilizationEnergyMission 141433.41460419
scalar OsgEarthNet.uav[19] utilizationEnergyMaintenance 85412.692310333
scalar OsgEarthNet.uav[19] utilizationEnergyCharge 225579.95849609
scalar OsgEarthNet.uav[19] utilizationEnergyOverdrawMission 0
scalar OsgEarthNet.uav[19] utilizationEnergyOverdrawMaintenance 0
scalar OsgEarthNet.uav[19] utilizationCountMissions 49
scalar OsgEarthNet.uav[19] utilizationCountManeuversMission 500
scalar OsgEarthNet.uav[19] utilizationCountManeuversMaintenance 98
scalar OsgEarthNet.uav[19] utilizationCountChargeState 49
scalar OsgEarthNet.uav[19] utilizationCountOverdrawnAfterMission 0
scalar OsgEarthNet.uav[19] utilizationCountIdleState 49
scalar OsgEarthNet.uav[19] utilizationFail 0
scalar OsgEarthNet.uav[19] simulationTime 259200
scalar OsgEarthNet.uav[20] utilizationSecMission 10783.931520974
scalar OsgEarthNet.uav[20] utilizationSecMaintenance 10008.530348657
scalar OsgEarthNet.uav[20] utilizationSecCharge 75104.933807912
scalar OsgEarthNet.uav[20] utilizationSecIdle 163302.60332246
scalar OsgEarthNet.uav[20] utilizationEnergyMission 50839.393348694
scalar OsgEarthNet.uav[20] utilizationEnergyMaintenance 46740.401168823
scalar OsgEarthNet.uav[20] utilizationEnergyCharge 95402.042724609
scalar OsgEarthNet.uav[20] utilizationEnergyOverdrawMission 0
scalar OsgEarthNet.uav[20] utilizationEnergyOverdrawMaintenance 0
scalar OsgEarthNet.uav[20] utilizationCountMissions 21
scalar OsgEarthNet.uav[20] utilizationCountManeuversMission 181
scalar OsgEarthNet.uav[20] utilizationCountManeuversMaintenance 42
scalar OsgEarthNet.uav[20] utilizationCountChargeState 21
scalar OsgEarthNet.uav[20] utilizationCountOverdrawnAfterMission 0
scalar OsgEarthNet.uav[20] utilizationCountIdleState 21
scalar OsgEarthNet.uav[20] utilizationFail 0
scalar OsgEarthNet.uav[20] simulationTime 259200
scalar OsgEarthNet.uav[21] utilizationSecMission 28832.084435504
scalar OsgEarthNet.uav[21] utilizationSecMaintenance 18920.596767808
scalar OsgEarthNet.uav[21] utilizationSecCharge 173136.26199273
scalar OsgEarthNet.uav[21] utilizationSecIdle 38311.055803961
scalar OsgEarthNet.uav[21] utilizationEnergyMission 133842.81272125
scalar OsgEarthNet.uav[21] utilizationEnergyMaintenance 87672.051986694
scalar OsgEarthNet.uav[21] utilizationEnergyCharge 216703.35656738
scalar OsgEarthNet.uav[21] utilizationEnergyOverdrawMission 0
scalar OsgEarthNet.uav[21] utilizationEnergyOverdrawMaintenance 0
scalar OsgEarthNet.uav[21] utilizationCountMissions 49
scalar OsgEarthNet.uav[21] utilizationCountManeuversMission 455
scalar OsgEarthNet.uav[21] utilizationCountManeuversMaintenance 98
scalar OsgEarthNet.uav[21] utilizationCountChargeState 49
scalar OsgEarthNet.uav[21] utilizationCountOverdrawnAfterMission 0
scalar OsgEarthNet.uav[21] utilizationCountIdleState 49
scalar OsgEarthNet.uav[21] utilizationFail 0
scalar OsgEarthNet.uav[21] simulationTime 259200
scalar OsgEarthNet.uav[22] utilizationSecMission 26129.090545037
scalar OsgEarthNet.uav[22] utilizationSecMaintenance 18127.123116218
scalar OsgEarthNet.uav[22] utilizationSecCharge 163110
scalar OsgEarthNet.uav[22] utilizationSecIdle 51833.785338745
scalar OsgEarthNet.uav[22] utilizationEnergyMission 120231.81595612
scalar OsgEarthNet.uav[22] utilizationEnergyMaintenance 84172.870994568
scalar OsgEarthNet.uav[22] utilizationEnergyCharge 204346.62646484
scalar OsgEarthNet.uav[22] utilizationEnergyOverdrawMission 0
scalar OsgEarthNet.uav[22] utilizationEnergyOverdrawMaintenance 0
scalar OsgEarthNet.uav[22] utilizationCountMissions 45
scalar OsgEarthNet.uav[22] utilizationCountManeuversMission 428
scalar OsgEarthNet.uav[22] utilizationCountManeuversMaintenance 90
scalar OsgEarthNet.uav[22] utilizationCountChargeState 45
scalar OsgEarthNet.uav[22] utilizationCountOverdrawnAfterMission 0
scalar OsgEarthNet.uav[22] utilizationCountIdleState 46
scalar OsgEarthNet.uav[22] utilizationFail 0
scalar OsgEarthNet.uav[22] simulationTime 259200
scalar OsgEarthNet.uav[23] utilizationSecMission 27844.653079253
scalar OsgEarthNet.uav[23] utilizationSecMaintenance 19525.344418688
scalar OsgEarthNet.uav[23] utilizationSecCharge 171665.35708014
scalar OsgEarthNet.uav[23] utilizationSecIdle 40164.644421923
scalar OsgEarthNet.uav[23] utilizationEnergyMission 128036.58695602
scalar OsgEarthNet.uav[23] utilizationEnergyMaintenance 90708.594444275
scalar OsgEarthNet.uav[23] utilizationEnergyCharge 215637.36401367
scalar OsgEarthNet.uav[23] utilizationEnergyOverdrawMission 0
scalar OsgEarthNet.uav[23] utilizationEnergyOverdrawMaintenance 0
scalar OsgEarthNet.uav[23] utilizationCountMissions 48
scalar OsgEarthNet.uav[23] utilizationCountManeuversMission 469
scalar OsgEarthNet.uav[23] utilizationCountManeuversMaintenance 96
scalar OsgEarthNet.uav[23] utilizationCountChargeState 48
scalar OsgEarthNet.uav[23] utilizationCountOverdrawnAfterMission 0
scalar OsgEarthNet.uav[23] utilizationCountIdleState 48
scalar OsgEarthNet.uav[23] utilizationFail 0
scalar OsgEarthNet.uav[23] simulationTime 259200
scalar OsgEarthNet.uav[24] utilizationSecMission 31166.437370587
scalar OsgEarthNet.uav[24] utilizationSecMaintenance 17629.58427645
scalar OsgEarthNet.uav[24] utilizationSecCharge 178069.36546345
scalar OsgEarthNet.uav[24] utilizationSecIdle 32334.611889516
scalar OsgEarthNet.uav[24] utilizationEnergyMission 143752.32019043
scalar OsgEarthNet.uav[24] utilizationEnergyMaintenance 82219.53553009
scalar OsgEarthNet.uav[24] utilizationEnergyCharge 225053.04101562
scalar OsgEarthNet.uav[24] utilizationEnergyOverdrawMission 0
scalar OsgEarthNet.uav[24] utilizationEnergyOverdrawMaintenance 0
scalar OsgEarthNet.uav[24] utilizationCountMissions 49
scalar OsgEarthNet.uav[24] utilizationCountManeuversMission 501
scalar OsgEarthNet.uav[24] utilizationCountManeuversMaintenance 98
scalar OsgEarthNet.uav[24] utilizationCountChargeState 49
scalar OsgEarthNet.uav[24] utilizationCountOverdrawnAfterMission 0
scalar OsgEarthNet.uav[24] utilizationCountIdleState 49
scalar OsgEarthNet.uav[24] utilizationFail 0
scalar OsgEarthNet.uav[24] simulationTime 259200
scalar OsgEarthNet.uav[25] utilizationSecMission 25374.760880893
scalar OsgEarthNet.uav[25] utilizationSecMaintenance 19329.451000376
scalar OsgEarthNet.uav[25] utilizationSecCharge 163546.15603807
scalar OsgEarthNet.uav[25] utilizationSecIdle 50949.631080665
scalar OsgEarthNet.uav[25] utilizationEnergyMission 117255.93604279
scalar OsgEarthNet.uav[25] utilizationEnergyMaintenance 88959.501743317
scalar OsgEarthNet.uav[25] utilizationEnergyCharge 206012.68798828
scalar OsgEarthNet.uav[25] utilizationEnergyOverdrawMission 0
scalar OsgEarthNet.uav[25] utilizationEnergyOverdrawMaintenance 0
scalar OsgEarthNet.uav[25] utilizationCountMissions 45
scalar OsgEarthNet.uav[25] utilizationCountManeuversMission 431
scalar OsgEarthNet.uav[25] utilizationCountManeuversMaintenance 90
scalar OsgEarthNet.uav[25] utilizationCountChargeState 45
scalar OsgEarthNet.uav[25] utilizationCountOverdrawnAfterMission 0
scalar OsgEarthNet.uav[25] utilizationCountIdleState 45
scalar OsgEarthNet.uav[25] utilizationFail 0
scalar OsgEarthNet.uav[25] simulationTime 259200
scalar OsgEarthNet.uav[26] utilizationSecMission 10682.741314694
scalar OsgEarthNet.uav[26] utilizationSecMaintenance 5121.3036406844
scalar OsgEarthNet.uav[26] utilizationSecCharge 58520
scalar OsgEarthNet.uav[26] utilizationSecIdle 184875.95404462
scalar OsgEarthNet.uav[26] utilizationEnergyMission 49659.070045471
scalar OsgEarthNet.uav[26] utilizationEnergyMaintenance 24269.936321259
scalar OsgEarthNet.uav[26] utilizationEnergyCharge 73723.862792969
scalar OsgEarthNet.uav[26] utilizationEnergyOverdrawMission 0
scalar OsgEarthNet.uav[26] utilizationEnergyOverdrawMaintenance 0
scalar OsgEarthNet.uav[26] utilizationCountMissions 16
scalar OsgEarthNet.uav[26] utilizationCountManeuversMission 165
scalar OsgEarthNet.uav[26] utilizationCountManeuversMaintenance 32
scalar OsgEarthNet.uav[26] utilizationCountChargeState 16
scalar OsgEarthNet.uav[26] utilizationCountOverdrawnAfterMission 0
scalar OsgEarthNet.uav[26] utilizationCountIdleState 17
scalar OsgEarthNet.uav[26] utilizationFail 0
scalar OsgEarthNet.uav[26] simulationTime 259200
scalar OsgEarthNet.uav[27] utilizationSecMission 20217.30649421
scalar OsgEarthNet.uav[27] utilizationSecMaintenance 15482.83740658
scalar OsgEarthNet.uav[27] utilizationSecCharge 130517.76789793
scalar OsgEarthNet.uav[27] utilizationSecIdle 92982.087201284
scalar OsgEarthNet.uav[27] utilizationEnergyMission 94057.047473907
scalar OsgEarthNet.uav[27] utilizationEnergyMaintenance 71738.634109497
scalar OsgEarthNet.uav[27] utilizationEnergyCharge 165248.45263672
scalar OsgEarthNet.uav[27] utilizationEnergyOverdrawMission 0
scalar OsgEarthNet.uav[27] utilizationEnergyOverdrawMaintenance 0
scalar OsgEarthNet.uav[27] utilizationCountMissions 36
scalar OsgEarthNet.uav[27] utilizationCountManeuversMission 338
scalar OsgEarthNet.uav[27] utilizationCountManeuversMaintenance 72
scalar OsgEarthNet.uav[27] utilizationCountChargeState 36
scalar OsgEarthNet.uav[27] utilizationCountOverdrawnAfterMission 0
scalar OsgEarthNet.uav[27] utilizationCountIdleState 34
scalar OsgEarthNet.uav[27] utilizationFail 0
scalar OsgEarthNet.uav[27] simulationTime 259200
scalar OsgEarthNet.uav[28] utilizationSecMission 30823.935864304
scalar OsgEarthNet.uav[28] utilizationSecMaintenance 18560.220786394
scalar OsgEarthNet.uav[28] utilizationSecCharge 179930
scalar OsgEarthNet.uav[28] utilizationSecIdle 29885.842349302
scalar OsgEarthNet.uav[28] utilizationEnergyMission 141220.54003348
scalar OsgEarthNet.uav[28] utilizationEnergyMaintenance 85464.321926117
scalar OsgEarthNet.uav[28] utilizationEnergyCharge 226667.8671875
scalar OsgEarthNet.uav[28] utilizationEnergyOverdrawMission 0
scalar OsgEarthNet.uav[28] utilizationEnergyOverdrawMaintenance 0
scalar OsgEarthNet.uav[28] utilizationCountMissions 49
scalar OsgEarthNet.uav[28] utilizationCountManeuversMission 498
scalar OsgEarthNet.uav[28] utilizationCountManeuversMaintenance 97
scalar OsgEarthNet.uav[28] utilizationCountChargeState 49
scalar OsgEarthNet.uav[28] utilizationCountOverdrawnAfterMission 0
scalar OsgEarthNet.uav[28] utilizationCountIdleState 49
scalar OsgEarthNet.uav[28] utilizationFail 0
scalar OsgEarthNet.uav[28] simulationTime 259200
scalar OsgEarthNet.uav[29] utilizationSecMission 30576.098462157
scalar OsgEarthNet.uav[29] utilizationSecMaintenance 18553.748992614
scalar OsgEarthNet.uav[29] utilizationSecCharge 178038.01173208
scalar OsgEarthNet.uav[29] utilizationSecIdle 32032.139813144
scalar OsgEarthNet.uav[29] utilizationEnergyMission 140469.74595642
scalar OsgEarthNet.uav[29] utilizationEnergyMaintenance 86461.858062744
scalar OsgEarthNet.uav[29] utilizationEnergyCharge 223874.33630371
scalar OsgEarthNet.uav[29] utilizationEnergyOverdrawMission 0
scalar OsgEarthNet.uav[29] utilizationEnergyOverdrawMaintenance 0
scalar OsgEarthNet.uav[29] utilizationCountMissions 50
scalar OsgEarthNet.uav[29] utilizationCountManeuversMission 483
scalar OsgEarthNet.uav[29] utilizationCountManeuversMaintenance 100
scalar OsgEarthNet.uav[29] utilizationCountChargeState 50
scalar OsgEarthNet.uav[29] utilizationCountOverdrawnAfterMission 0
scalar OsgEarthNet.uav[29] utilizationCountIdleState 49
scalar OsgEarthNet.uav[29] utilizationFail 0
scalar OsgEarthNet.uav[29] simulationTime 259200
scalar OsgEarthNet.uav[30] utilizationSecMission 28670.681948477
scalar OsgEarthNet.uav[30] utilizationSecMaintenance 18593.225548532
scalar OsgEarthNet.uav[30] utilizationSecCharge 173570
scalar OsgEarthNet.uav[30] utilizationSecIdle 38366.091502991
scalar OsgEarthNet.uav[30] utilizationEnergyMission 132581.15131378
scalar OsgEarthNet.uav[30] utilizationEnergyMaintenance 84869.056167603
scalar OsgEarthNet.uav[30] utilizationEnergyCharge 217434.83618164
scalar OsgEarthNet.uav[30] utilizationEnergyOverdrawMission 0
scalar OsgEarthNet.uav[30] utilizationEnergyOverdrawMaintenance 0
scalar OsgEarthNet.uav[30] utilizationCountMissions 48
scalar OsgEarthNet.uav[30] utilizationCountManeuversMission 465
scalar OsgEarthNet.uav[30] utilizationCountManeuversMaintenance 96
scalar OsgEarthNet.uav[30] utilizationCountChargeState 48
scalar OsgEarthNet.uav[30] utilizationCountOverdrawnAfterMission 0
scalar OsgEarthNet.uav[30] utilizationCountIdleState 48
scalar OsgEarthNet.uav[30] utilizationFail 0
scalar OsgEarthNet.uav[30] simulationTime 259200
scalar OsgEarthNet.uav[31] utilizationSecMission 23261.336735142
scalar OsgEarthNet.uav[31] utilizationSecMaintenance 16842.068174821
scalar OsgEarthNet.uav[31] utilizationSecCharge 148530
scalar OsgEarthNet.uav[31] utilizationSecIdle 70566.594090037
scalar OsgEarthNet.uav[31] utilizationEnergyMission 108858.09883499
scalar OsgEarthNet.uav[31] utilizationEnergyMaintenance 78163.366981506
scalar OsgEarthNet.uav[31] utilizationEnergyCharge 187116.44702148
scalar OsgEarthNet.uav[31] utilizationEnergyOverdrawMission 0
scalar OsgEarthNet.uav[31] utilizationEnergyOverdrawMaintenance 0
scalar OsgEarthNet.uav[31] utilizationCountMissions 41
scalar OsgEarthNet.uav[31] utilizationCountManeuversMission 386
scalar OsgEarthNet.uav[31] utilizationCountManeuversMaintenance 82
scalar OsgEarthNet.uav[31] utilizationCountChargeState 41
scalar OsgEarthNet.uav[31] utilizationCountOverdrawnAfterMission 0
scalar OsgEarthNet.uav[31] utilizationCountIdleState 40
scalar OsgEarthNet.uav[31] utilizationFail 0
scalar OsgEarthNet.uav[31] simulationTime 259200
scalar OsgEarthNet.uav[32] utilizationSecMission 28744.712665254
scalar OsgEarthNet.uav[32] utilizationSecMaintenance 20493.286334746
scalar OsgEarthNet.uav[32] utilizationSecCharge 179120
scalar OsgEarthNet.uav[32] utilizationSecIdle 30842
scalar OsgEarthNet.uav[32] utilizationEnergyMission 135118.42810242
scalar OsgEarthNet.uav[32] utilizationEnergyMaintenance 93864.257587433
scalar OsgEarthNet.uav[32] utilizationEnergyCharge 225280.88305664
scalar OsgEarthNet.uav[32] utilizationEnergyOverdrawMission 0
scalar OsgEarthNet.uav[32] utilizationEnergyOverdrawMaintenance 0
scalar OsgEarthNet.uav[32] utilizationCountMissions 49
scalar OsgEarthNet.uav[32] utilizationCountManeuversMission 460
scalar OsgEarthNet.uav[32] utilizationCountManeuversMaintenance 98
scalar OsgEarthNet.uav[32] utilizationCountChargeState 49
scalar OsgEarthNet.uav[32] utilizationCountOverdrawnAfterMission 0
scalar OsgEarthNet.uav[32] utilizationCountIdleState 50
scalar OsgEarthNet.uav[32] utilizationFail 0
scalar OsgEarthNet.uav[32] simulationTime 259200
scalar OsgEarthNet.uav[33] utilizationSecMission 23140.682824249
scalar OsgEarthNet.uav[33] utilizationSecMaintenance 18602.151505182
scalar OsgEarthNet.uav[33] utilizationSecCharge 153710
scalar OsgEarthNet.uav[33] utilizationSecIdle 63747.164670569
scalar OsgEarthNet.uav[33] utilizationEnergyMission 106335.63262177
scalar OsgEarthNet.uav[33] utilizationEnergyMaintenance 85639.959762573
scalar OsgEarthNet.uav[33] utilizationEnergyCharge 192228.66821289
scalar OsgEarthNet.uav[33] utilizationEnergyOverdrawMission 0
scalar OsgEarthNet.uav[33] utilizationEnergyOverdrawMaintenance 0
scalar OsgEarthNet.uav[33] utilizationCountMissions 43
scalar OsgEarthNet.uav[33] utilizationCountManeuversMission 385
scalar OsgEarthNet.uav[33] utilizationCountManeuversMaintenance 86
scalar OsgEarthNet.uav[33] utilizationCountChargeState 43
scalar OsgEarthNet.uav[33] utilizationCountOverdrawnAfterMission 0
scalar OsgEarthNet.uav[33] utilizationCountIdleState 43
scalar OsgEarthNet.uav[33] utilizationFail 0
scalar OsgEarthNet.uav[33] simulationTime 259200
scalar OsgEarthNet.uav[34] utilizationSecMission 23245.99887477
scalar OsgEarthNet.uav[34] utilizationSecMaintenance 17067.654343126
scalar OsgEarthNet.uav[34] utilizationSecCharge 149310
scalar OsgEarthNet.uav[34] utilizationSecIdle 69576.345782104
scalar OsgEarthNet.uav[34] utilizationEnergyMission 108255.5344162
scalar OsgEarthNet.uav[34] utilizationEnergyMaintenance 79825.329429626
scalar OsgEarthNet.uav[34] utilizationEnergyCharge 188121.3034668
scalar OsgEarthNet.uav[34] utilizationEnergyOverdrawMission 0
scalar OsgEarthNet.uav[34] utilizationEnergyOverdrawMaintenance 0
scalar OsgEarthNet.uav[34] utilizationCountMissions 41
scalar OsgEarthNet.uav[34] utilizationCountManeuversMission 382
scalar OsgEarthNet.uav[34] utilizationCountManeuversMaintenance 82
scalar OsgEarthNet.uav[34] utilizationCountChargeState 41
scalar OsgEarthNet.uav[34] utilizationCountOverdrawnAfterMission 0
scalar OsgEarthNet.uav[34] utilizationCountIdleState 39
scalar OsgEarthNet.uav[34] utilizationFail 0
scalar OsgEarthNet.uav[34] simulationTime 259200
scalar OsgEarthNet.uav[35] utilizationSecMission 25625.785258551
scalar OsgEarthNet.uav[35] utilizationSecMaintenance 19741.099221548
scalar OsgEarthNet.uav[35] utilizationSecCharge 164361.44146831
scalar OsgEarthNet.uav[35] utilizationSecIdle 49471.673051586
scalar OsgEarthNet.uav[35] utilizationEnergyMission 117021.69934845
scalar OsgEarthNet.uav[35] utilizationEnergyMaintenance 90967.15455246
scalar OsgEarthNet.uav[35] utilizationEnergyCharge 207476.18920898
scalar OsgEarthNet.uav[35] utilizationEnergyOverdrawMission 0
scalar OsgEarthNet.uav[35] utilizationEnergyOverdrawMaintenance 0
scalar OsgEarthNet.uav[35] utilizationCountMissions 46
scalar OsgEarthNet.uav[35] utilizationCountManeuversMission 420
scalar OsgEarthNet.uav[35] utilizationCountManeuversMaintenance 92
scalar OsgEarthNet.uav[35] utilizationCountChargeState 46
scalar OsgEarthNet.uav[35] utilizationCountOverdrawnAfterMission 0
scalar OsgEarthNet.uav[35] utilizationCountIdleState 42
scalar OsgEarthNet.uav[35] utilizationFail 0
scalar OsgEarthNet.uav[35] simulationTime 259200
scalar OsgEarthNet.uav[36] utilizationSecMission 27229.450346236
scalar OsgEarthNet.uav[36] utilizationSecMaintenance 20277.782688425
scalar OsgEarthNet.uav[36] utilizationSecCharge 175330
scalar OsgEarthNet.uav[36] utilizationSecIdle 36362.765965339
scalar OsgEarthNet.uav[36] utilizationEnergyMission 125443.38319016
scalar OsgEarthNet.uav[36] utilizationEnergyMaintenance 95543.073174028
scalar OsgEarthNet.uav[36] utilizationEnergyCharge 220653.99682617
scalar OsgEarthNet.uav[36] utilizationEnergyOverdrawMission 0
scalar OsgEarthNet.uav[36] utilizationEnergyOverdrawMaintenance 0
scalar OsgEarthNet.uav[36] utilizationCountMissions 48
scalar OsgEarthNet.uav[36] utilizationCountManeuversMission 439
scalar OsgEarthNet.uav[36] utilizationCountManeuversMaintenance 97
scalar OsgEarthNet.uav[36] utilizationCountChargeState 48
scalar OsgEarthNet.uav[36] utilizationCountOverdrawnAfterMission 0
scalar OsgEarthNet.uav[36] utilizationCountIdleState 48
scalar OsgEarthNet.uav[36] utilizationFail 0
scalar OsgEarthNet.uav[36] simulationTime 259200
scalar OsgEarthNet.uav[37] utilizationSecMission 26252.942340786
scalar OsgEarthNet.uav[37] utilizationSecMaintenance 22137.672654628
scalar OsgEarthNet.uav[37] utilizationSecCharge 174390
scalar OsgEarthNet.uav[37] utilizationSecIdle 36419.384004586
scalar OsgEarthNet.uav[37] utilizationEnergyMission 120291.97570038
scalar OsgEarthNet.uav[37] utilizationEnergyMaintenance 102203.28887757
scalar OsgEarthNet.uav[37] utilizationEnergyCharge 218296.27392578
scalar OsgEarthNet.uav[37] utilizationEnergyOverdrawMission 0
scalar OsgEarthNet.uav[37] utilizationEnergyOverdrawMaintenance 0
scalar OsgEarthNet.uav[37] utilizationCountMissions 50
scalar OsgEarthNet.uav[37] utilizationCountManeuversMission 440
scalar OsgEarthNet.uav[37] utilizationCountManeuversMaintenance 100
scalar OsgEarthNet.uav[37] utilizationCountChargeState 49
scalar OsgEarthNet.uav[37] utilizationCountOverdrawnAfterMission 0
scalar OsgEarthNet.uav[37] utilizationCountIdleState 46
scalar OsgEarthNet.uav[37] utilizationFail 0
scalar OsgEarthNet.uav[37] simulationTime 259200
scalar OsgEarthNet.uav[38] utilizationSecMission 28144.353233289
scalar OsgEarthNet.uav[38] utilizationSecMaintenance 19388.19550268
scalar OsgEarthNet.uav[38] utilizationSecCharge 170050
scalar OsgEarthNet.uav[38] utilizationSecIdle 41617.450264031
scalar OsgEarthNet.uav[38] utilizationEnergyMission 129747.1057538
scalar OsgEarthNet.uav[38] utilizationEnergyMaintenance 88034.449432373
scalar OsgEarthNet.uav[38] utilizationEnergyCharge 213724.30078125
scalar OsgEarthNet.uav[38] utilizationEnergyOverdrawMission 0
scalar OsgEarthNet.uav[38] utilizationEnergyOverdrawMaintenance 0
scalar OsgEarthNet.uav[38] utilizationCountMissions 47
scalar OsgEarthNet.uav[38] utilizationCountManeuversMission 455
scalar OsgEarthNet.uav[38] utilizationCountManeuversMaintenance 95
scalar OsgEarthNet.uav[38] utilizationCountChargeState 47
scalar OsgEarthNet.uav[38] utilizationCountOverdrawnAfterMission 0
scalar OsgEarthNet.uav[38] utilizationCountIdleState 43
scalar OsgEarthNet.uav[38] utilizationFail 0
scalar OsgEarthNet.uav[38] simulationTime 259200
scalar OsgEarthNet.uav[39] utilizationSecMission 30474.81486364
scalar OsgEarthNet.uav[39] utilizationSecMaintenance 18956.543613635
scalar OsgEarthNet.uav[39] utilizationSecCharge 177034.622253
scalar OsgEarthNet.uav[39] utilizationSecIdle 32734.018269728
scalar OsgEarthNet.uav[39] utilizationEnergyMission 138147.42217636
scalar OsgEarthNet.uav[39] utilizationEnergyMaintenance 88445.764392853
scalar OsgEarthNet.uav[39] utilizationEnergyCharge 223472.64160156
scalar OsgEarthNet.uav[39] utilizationEnergyOverdrawMission 0
scalar OsgEarthNet.uav[39] utilizationEnergyOverdrawMaintenance 0
scalar OsgEarthNet.uav[39] utilizationCountMissions 50
scalar OsgEarthNet.uav[39] utilizationCountManeuversMission 498
scalar OsgEarthNet.uav[39] utilizationCountManeuversMaintenance 100
scalar OsgEarthNet.uav[39] utilizationCountChargeState 50
scalar OsgEarthNet.uav[39] utilizationCountOverdrawnAfterMission 0
scalar OsgEarthNet.uav[39] utilizationCountIdleState 45
scalar OsgEarthNet.uav[39] utilizationFail 0
scalar OsgEarthNet.uav[39] simulationTime 259200
scalar OsgEarthNet.uav[40] utilizationSecMission 31623.389876628
scalar OsgEarthNet.uav[40] utilizationSecMaintenance 16533.787718445
scalar OsgEarthNet.uav[40] utilizationSecCharge 174376.92467861
scalar OsgEarthNet.uav[40] utilizationSecIdle 36665.896726312
scalar OsgEarthNet.uav[40] utilizationEnergyMission 147103.38035583
scalar OsgEarthNet.uav[40] utilizationEnergyMaintenance 76465.235286713
scalar OsgEarthNet.uav[40] utilizationEnergyCharge 219408.10461426
scalar OsgEarthNet.uav[40] utilizationEnergyOverdrawMission 0
scalar OsgEarthNet.uav[40] utilizationEnergyOverdrawMaintenance 0
scalar OsgEarthNet.uav[40] utilizationCountMissions 49
scalar OsgEarthNet.uav[40] utilizationCountManeuversMission 512
scalar OsgEarthNet.uav[40] utilizationCountManeuversMaintenance 98
scalar OsgEarthNet.uav[40] utilizationCountChargeState 49
scalar OsgEarthNet.uav[40] utilizationCountOverdrawnAfterMission 0
scalar OsgEarthNet.uav[40] utilizationCountIdleState 46
scalar OsgEarthNet.uav[40] utilizationFail 0
scalar OsgEarthNet.uav[40] simulationTime 259200
scalar OsgEarthNet.uav[41] utilizationSecMission 29064.249672516
scalar OsgEarthNet.uav[41] utilizationSecMaintenance 20421.983979046
scalar OsgEarthNet.uav[41] utilizationSecCharge 179223.74706553
scalar OsgEarthNet.uav[41] utilizationSecIdle 30490.018282913
scalar OsgEarthNet.uav[41] utilizationEnergyMission 134460.93153381
scalar OsgEarthNet.uav[41] utilizationEnergyMaintenance 94597.65435791
scalar OsgEarthNet.uav[41] utilizationEnergyCharge 227604.00683594
scalar OsgEarthNet.uav[41] utilizationEnergyOverdrawMission 0
scalar OsgEarthNet.uav[41] utilizationEnergyOverdrawMaintenance 0
scalar OsgEarthNet.uav[41] utilizationCountMissions 50
scalar OsgEarthNet.uav[41] utilizationCountManeuversMission 475
scalar OsgEarthNet.uav[41] utilizationCountManeuversMaintenance 100
scalar OsgEarthNet.uav[41] utilizationCountChargeState 50
scalar OsgEarthNet.uav[41] utilizationCountOverdrawnAfterMission 0
scalar OsgEarthNet.uav[41] utilizationCountIdleState 40
scalar OsgEarthNet.uav[41] utilizationFail 0
scalar OsgEarthNet.uav[41] simulationTime 259200
scalar OsgEarthNet.uav[42] utilizationSecMission 30568.55357019
scalar OsgEarthNet.uav[42] utilizationSecMaintenance 18903.205020521
scalar OsgEarthNet.uav[42] utilizationSecCharge 180918.815062
scalar OsgEarthNet.uav[42] utilizationSecIdle 28809.42534729
scalar OsgEarthNet.uav[42] utilizationEnergyMission 138500.73575211
scalar OsgEarthNet.uav[42] utilizationEnergyMaintenance 88542.180595398
scalar OsgEarthNet.uav[42] utilizationEnergyCharge 227826.58984375
scalar OsgEarthNet.uav[42] utilizationEnergyOverdrawMission 0
scalar OsgEarthNet.uav[42] utilizationEnergyOverdrawMaintenance 0
scalar OsgEarthNet.uav[42] utilizationCountMissions 50
scalar OsgEarthNet.uav[42] utilizationCountManeuversMission 499
scalar OsgEarthNet.uav[42] utilizationCountManeuversMaintenance 100
scalar OsgEarthNet.uav[42] utilizationCountChargeState 50
scalar OsgEarthNet.uav[42] utilizationCountOverdrawnAfterMission 0
scalar OsgEarthNet.uav[42] utilizationCountIdleState 46
scalar OsgEarthNet.uav[42] utilizationFail 0
scalar OsgEarthNet.uav[42] simulationTime 259200
scalar OsgEarthNet.uav[43] utilizationSecMission 28125.580358187
scalar OsgEarthNet.uav[43] utilizationSecMaintenance 20891.723891487
scalar OsgEarthNet.uav[43] utilizationSecCharge 178917.28286324
scalar OsgEarthNet.uav[43] utilizationSecIdle 31265.411887085
scalar OsgEarthNet.uav[43] utilizationEnergyMission 130406.48797226
scalar OsgEarthNet.uav[43] utilizationEnergyMaintenance 95690.182315826
scalar OsgEarthNet.uav[43] utilizationEnergyCharge 225535.23266602
scalar OsgEarthNet.uav[43] utilizationEnergyOverdrawMission 0
scalar OsgEarthNet.uav[43] utilizationEnergyOverdrawMaintenance 0
scalar OsgEarthNet.uav[43] utilizationCountMissions 50
scalar OsgEarthNet.uav[43] utilizationCountManeuversMission 454
scalar OsgEarthNet.uav[43] utilizationCountManeuversMaintenance 100
scalar OsgEarthNet.uav[43] utilizationCountChargeState 50
scalar OsgEarthNet.uav[43] utilizationCountOverdrawnAfterMission 0
scalar OsgEarthNet.uav[43] utilizationCountIdleState 44
scalar OsgEarthNet.uav[43] utilizationFail 0
scalar OsgEarthNet.uav[43] simulationTime 259200
scalar OsgEarthNet.uav[44] utilizationSecMission 26881.896930764
scalar OsgEarthNet.uav[44] utilizationSecMaintenance 23829.9255022
scalar OsgEarthNet.uav[44] utilizationSecCharge 187441.49575915
scalar OsgEarthNet.uav[44] utilizationSecIdle 21046.680807888
scalar OsgEarthNet.uav[44] utilizationEnergyMission 125289.59521484
scalar OsgEarthNet.uav[44] utilizationEnergyMaintenance 110669.71987152
scalar OsgEarthNet.uav[44] utilizationEnergyCharge 235882.5859375
scalar OsgEarthNet.uav[44] utilizationEnergyOverdrawMission 0
scalar OsgEarthNet.uav[44] utilizationEnergyOverdrawMaintenance 0
scalar OsgEarthNet.uav[44] utilizationCountMissions 52
scalar OsgEarthNet.uav[44] utilizationCountManeuversMission 450
scalar OsgEarthNet.uav[44] utilizationCountManeuversMaintenance 104
scalar OsgEarthNet.uav[44] utilizationCountChargeState 52
scalar OsgEarthNet.uav[44] utilizationCountOverdrawnAfterMission 0
scalar OsgEarthNet.uav[44] utilizationCountIdleState 46
scalar OsgEarthNet.uav[44] utilizationFail 0
scalar OsgEarthNet.uav[44] simulationTime 259200
scalar OsgEarthNet.uav[45] utilizationSecMission 28297.581622177
scalar OsgEarthNet.uav[45] utilizationSecMaintenance 23940.789354726
scalar OsgEarthNet.uav[45] utilizationSecCharge 189312.7798633
scalar OsgEarthNet.uav[45] utilizationSecIdle 17648.848159794
scalar OsgEarthNet.uav[45] utilizationEnergyMission 130234.63100433
scalar OsgEarthNet.uav[45] utilizationEnergyMaintenance 111436.90584564
scalar OsgEarthNet.uav[45] utilizationEnergyCharge 241611.68481445
scalar OsgEarthNet.uav[45] utilizationEnergyOverdrawMission 0
scalar OsgEarthNet.uav[45] utilizationEnergyOverdrawMaintenance 0
scalar OsgEarthNet.uav[45] utilizationCountMissions 53
scalar OsgEarthNet.uav[45] utilizationCountManeuversMission 455
scalar OsgEarthNet.uav[45] utilizationCountManeuversMaintenance 106
scalar OsgEarthNet.uav[45] utilizationCountChargeState 53
scalar OsgEarthNet.uav[45] utilizationCountOverdrawnAfterMission 0
scalar OsgEarthNet.uav[45] utilizationCountIdleState 32
scalar OsgEarthNet.uav[45] utilizationFail 0
scalar OsgEarthNet.uav[45] simulationTime 259200
scalar OsgEarthNet.uav[46] utilizationSecMission 30268.538934168
scalar OsgEarthNet.uav[46] utilizationSecMaintenance 22569.460065832
scalar OsgEarthNet.uav[46] utilizationSecCharge 193080
scalar OsgEarthNet.uav[46] utilizationSecIdle 13282
scalar OsgEarthNet.uav[46] utilizationEnergyMission 140514.99681091
scalar OsgEarthNet.uav[46] utilizationEnergyMaintenance 105625.18703878
scalar OsgEarthNet.uav[46] utilizationEnergyCharge 245864.86621094
scalar OsgEarthNet.uav[46] utilizationEnergyOverdrawMission 0
scalar OsgEarthNet.uav[46] utilizationEnergyOverdrawMaintenance 0
scalar OsgEarthNet.uav[46] utilizationCountMissions 54
scalar OsgEarthNet.uav[46] utilizationCountManeuversMission 501
scalar OsgEarthNet.uav[46] utilizationCountManeuversMaintenance 108
scalar OsgEarthNet.uav[46] utilizationCountChargeState 54
scalar OsgEarthNet.uav[46] utilizationCountOverdrawnAfterMission 0
scalar OsgEarthNet.uav[46] utilizationCountIdleState 39
scalar OsgEarthNet.uav[46] utilizationFail 0
scalar OsgEarthNet.uav[46] simulationTime 259200
scalar OsgEarthNet.uav[47] utilizationSecMission 29711.274329184
scalar OsgEarthNet.uav[47] utilizationSecMaintenance 24256.724670816
scalar OsgEarthNet.uav[47] utilizationSecCharge 194130
scalar OsgEarthNet.uav[47] utilizationSecIdle 11102
scalar OsgEarthNet.uav[47] utilizationEnergyMission 137639.00470734
scalar OsgEarthNet.uav[47] utilizationEnergyMaintenance 113020.5957194
scalar OsgEarthNet.uav[47] utilizationEnergyCharge 246606.32861328
scalar OsgEarthNet.uav[47] utilizationEnergyOverdrawMission 0
scalar OsgEarthNet.uav[47] utilizationEnergyOverdrawMaintenance 0
scalar OsgEarthNet.uav[47] utilizationCountMissions 55
scalar OsgEarthNet.uav[47] utilizationCountManeuversMission 482
scalar OsgEarthNet.uav[47] utilizationCountManeuversMaintenance 109
scalar OsgEarthNet.uav[47] utilizationCountChargeState 54
scalar OsgEarthNet.uav[47] utilizationCountOverdrawnAfterMission 0
scalar OsgEarthNet.uav[47] utilizationCountIdleState 36
scalar OsgEarthNet.uav[47] utilizationFail 0
scalar OsgEarthNet.uav[47] simulationTime 259200
scalar OsgEarthNet.uav[48] utilizationSecMission 29669.90934214
scalar OsgEarthNet.uav[48] utilizationSecMaintenance 24383.384295318
scalar OsgEarthNet.uav[48] utilizationSecCharge 194050
scalar OsgEarthNet.uav[48] utilizationSecIdle 11096.705362542
scalar OsgEarthNet.uav[48] utilizationEnergyMission 136412.5016741
scalar OsgEarthNet.uav[48] utilizationEnergyMaintenance 113965.62985992
scalar OsgEarthNet.uav[48] utilizationEnergyCharge 248153.26708984
scalar OsgEarthNet.uav[48] utilizationEnergyOverdrawMission 0
scalar OsgEarthNet.uav[48] utilizationEnergyOverdrawMaintenance 0
scalar OsgEarthNet.uav[48] utilizationCountMissions 54
scalar OsgEarthNet.uav[48] utilizationCountManeuversMission 495
scalar OsgEarthNet.uav[48] utilizationCountManeuversMaintenance 109
scalar OsgEarthNet.uav[48] utilizationCountChargeState 54
scalar OsgEarthNet.uav[48] utilizationCountOverdrawnAfterMission 0
scalar OsgEarthNet.uav[48] utilizationCountIdleState 34
scalar OsgEarthNet.uav[48] utilizationFail 0
scalar OsgEarthNet.uav[48] simulationTime 259200
scalar OsgEarthNet.uav[49] utilizationSecMission 28578.373117509
scalar OsgEarthNet.uav[49] utilizationSecMaintenance 24785.29290177
scalar OsgEarthNet.uav[49] utilizationSecCharge 191811.96347444
scalar OsgEarthNet.uav[49] utilizationSecIdle 14024.369506282
scalar OsgEarthNet.uav[49] utilizationEnergyMission 132818.61601639
scalar OsgEarthNet.uav[49] utilizationEnergyMaintenance 113702.62071991
scalar OsgEarthNet.uav[49] utilizationEnergyCharge 243809.72241211
scalar OsgEarthNet.uav[49] utilizationEnergyOverdrawMission 0
scalar OsgEarthNet.uav[49] utilizationEnergyOverdrawMaintenance 0
scalar OsgEarthNet.uav[49] utilizationCountMissions 54
scalar OsgEarthNet.uav[49] utilizationCountManeuversMission 477
scalar OsgEarthNet.uav[49] utilizationCountManeuversMaintenance 108
scalar OsgEarthNet.uav[49] utilizationCountChargeState 54
scalar OsgEarthNet.uav[49] utilizationCountOverdrawnAfterMission 0
scalar OsgEarthNet.uav[49] utilizationCountIdleState 37
scalar OsgEarthNet.uav[49] utilizationFail 0
scalar OsgEarthNet.uav[49] simulationTime 259200
scalar OsgEarthNet.cs[0] usedPower 2122638.9594842
scalar OsgEarthNet.cs[0] chargedPower 2122638.9594842
scalar OsgEarthNet.cs[0] chargedMobileNodes 429
scalar OsgEarthNet.cs[0] reservations 474
scalar OsgEarthNet.cs[1] usedPower 3001971.0065633
scalar OsgEarthNet.cs[1] chargedPower 3001971.0065633
scalar OsgEarthNet.cs[1] chargedMobileNodes 597
scalar OsgEarthNet.cs[1] reservations 650
scalar OsgEarthNet.cs[2] usedPower 4904208.4939
scalar OsgEarthNet.cs[2] chargedPower 4904208.4939
scalar OsgEarthNet.cs[2] chargedMobileNodes 1005
scalar OsgEarthNet.cs[2] reservations 1087

