version 2
run Szenario_Hotel_Gabelbach-96-20180710-04:20:56-32388
attr configname Szenario_Hotel_Gabelbach
attr datetime 20180710-04:20:56
attr experiment Szenario_Hotel_Gabelbach
attr inifile omnetpp.ini
attr iterationvars "$numUAVs=80, $replM=0"
attr iterationvarsf numUAVs=80,replM=0-
attr measurement "$numUAVs=80, $replM=0"
attr network OsgEarthNet
attr processid 32388
attr repetition 0
attr replication #0
attr resultdir results
attr runnumber 96
attr seedset 96
itervar numUAVs 80
itervar replM 0
param *.osgEarthScene.scene "\"Szenario_Hotel_Gabelbach.earth\""
param *.playgroundLatitude 50.6830269
param *.playgroundLongitude 10.8538055
param *.playgroundWidth 3500m
param *.playgroundHeight 3500m
param *.numCSs 3
param *.cs[0].posX 3537m
param *.cs[0].posY 965m
param *.cs[0].posZ 538m
param *.cs[1].posX 312m
param *.cs[1].posY 1262m
param *.cs[1].posZ 539m
param *.cs[2].posX 2185m
param *.cs[2].posY 3026m
param *.cs[2].posZ 777m
param *.cs[3].posX 10m
param *.cs[3].posY 2200m
param *.cs[3].posZ 560m
param *.cs[4].posX 750m
param *.cs[4].posY 200m
param *.cs[4].posZ 540m
param *.cs[5].posX 2450m
param *.cs[5].posY 180m
param *.cs[5].posZ 524m
param *.cs[6].posX 3140m
param *.cs[6].posY 1790m
param *.cs[6].posZ 606m
param *.numUAVs 80
param *.uav[*].replacementMethod 0
param *.*.timeStep 10s
param *.uav[*].commandPreviewCommandCount 20
param *.missionControl.missionFiles "\"missions\\\\Szenario_WB_Hotel_Gabelbach_Mission_Hotel.waypoints,missions\\\\Szenario_WB_Hotel_Gabelbach_Mission_Kickelhahn.waypoints,missions\\\\Szenario_WB_Hotel_Gabelbach_Mission_Ilmenau_Sportplatz.waypoints,missions\\\\Szenario_WB_Hotel_Gabelbach_Mission_Manebach_Mitte.waypoints,missions\\\\Szenario_WB_Hotel_Gabelbach_Mission_Manebach_Sued.waypoints\""
param *.missionControl.missionFiles "\"missions\\\\Szenario_WB_Hotel_Gabelbach_Mission_Hotel.waypoints,missions\\\\Szenario_WB_Hotel_Gabelbach_Mission_Kickelhahn.waypoints,missions\\\\Szenario_WB_Hotel_Gabelbach_Mission_Ilmenau_Sportplatz.waypoints,missions\\\\Szenario_WB_Hotel_Gabelbach_Mission_Manebach_Mitte.waypoints,missions\\\\Szenario_WB_Hotel_Gabelbach_Mission_Manebach_Sued.waypoints,missions\\\\Szenario_WB_Hotel_Gabelbach_Hover_HoheSchlaufe.waypoints,missions\\\\Szenario_WB_Hotel_Gabelbach_Hover_Kickelhahn.waypoints,missions\\\\Szenario_WB_Hotel_Gabelbach_Hover_Gabelbachskopf.waypoints,missions\\\\Szenario_WB_Hotel_Gabelbach_Hover_Dachskopf.waypoints\""
param *.uav[0].startX 3537m
param *.uav[0].startY 965m
param *.uav[0].startZ 539m
param *.uav[1].startX 312m
param *.uav[1].startY 1262m
param *.uav[1].startZ 540m
param *.uav[2].startX 2185m
param *.uav[2].startY 3026m
param *.uav[2].startZ 778m
param *.uav[3].startX 3537m
param *.uav[3].startY 965m
param *.uav[3].startZ 539m
param *.uav[4].startX 312m
param *.uav[4].startY 1262m
param *.uav[4].startZ 540m
param *.uav[5].startX 2185m
param *.uav[5].startY 3026m
param *.uav[5].startZ 778m
param *.uav[6].startX 3537m
param *.uav[6].startY 965m
param *.uav[6].startZ 539m
param *.uav[7].startX 312m
param *.uav[7].startY 1262m
param *.uav[7].startZ 540m
param *.uav[8].startX 2185m
param *.uav[8].startY 3026m
param *.uav[8].startZ 778m
param *.uav[9].startX 3537m
param *.uav[9].startY 965m
param *.uav[9].startZ 539m
param *.uav[10].startX 3537m
param *.uav[10].startY 965m
param *.uav[10].startZ 539m
param *.uav[11].startX 312m
param *.uav[11].startY 1262m
param *.uav[11].startZ 540m
param *.uav[12].startX 2185m
param *.uav[12].startY 3026m
param *.uav[12].startZ 778m
param *.uav[13].startX 3537m
param *.uav[13].startY 965m
param *.uav[13].startZ 539m
param *.uav[14].startX 312m
param *.uav[14].startY 1262m
param *.uav[14].startZ 540m
param *.uav[15].startX 2185m
param *.uav[15].startY 3026m
param *.uav[15].startZ 778m
param *.uav[16].startX 3537m
param *.uav[16].startY 965m
param *.uav[16].startZ 539m
param *.uav[17].startX 312m
param *.uav[17].startY 1262m
param *.uav[17].startZ 540m
param *.uav[18].startX 2185m
param *.uav[18].startY 3026m
param *.uav[18].startZ 778m
param *.uav[19].startX 3537m
param *.uav[19].startY 965m
param *.uav[19].startZ 539m
param *.uav[20].startX 3537m
param *.uav[20].startY 965m
param *.uav[20].startZ 539m
param *.uav[21].startX 312m
param *.uav[21].startY 1262m
param *.uav[21].startZ 540m
param *.uav[22].startX 2185m
param *.uav[22].startY 3026m
param *.uav[22].startZ 778m
param *.uav[23].startX 3537m
param *.uav[23].startY 965m
param *.uav[23].startZ 539m
param *.uav[24].startX 312m
param *.uav[24].startY 1262m
param *.uav[24].startZ 540m
param *.uav[25].startX 2185m
param *.uav[25].startY 3026m
param *.uav[25].startZ 778m
param *.uav[26].startX 3537m
param *.uav[26].startY 965m
param *.uav[26].startZ 539m
param *.uav[27].startX 312m
param *.uav[27].startY 1262m
param *.uav[27].startZ 540m
param *.uav[28].startX 2185m
param *.uav[28].startY 3026m
param *.uav[28].startZ 778m
param *.uav[29].startX 3537m
param *.uav[29].startY 965m
param *.uav[29].startZ 539m
param *.uav[30].startX 3537m
param *.uav[30].startY 965m
param *.uav[30].startZ 539m
param *.uav[31].startX 312m
param *.uav[31].startY 1262m
param *.uav[31].startZ 540m
param *.uav[32].startX 2185m
param *.uav[32].startY 3026m
param *.uav[32].startZ 778m
param *.uav[33].startX 3537m
param *.uav[33].startY 965m
param *.uav[33].startZ 539m
param *.uav[34].startX 312m
param *.uav[34].startY 1262m
param *.uav[34].startZ 540m
param *.uav[35].startX 2185m
param *.uav[35].startY 3026m
param *.uav[35].startZ 778m
param *.uav[36].startX 3537m
param *.uav[36].startY 965m
param *.uav[36].startZ 539m
param *.uav[37].startX 312m
param *.uav[37].startY 1262m
param *.uav[37].startZ 540m
param *.uav[38].startX 2185m
param *.uav[38].startY 3026m
param *.uav[38].startZ 778m
param *.uav[39].startX 3537m
param *.uav[39].startY 965m
param *.uav[39].startZ 539m
param *.uav[40].startX 3537m
param *.uav[40].startY 965m
param *.uav[40].startZ 539m
param *.uav[41].startX 312m
param *.uav[41].startY 1262m
param *.uav[41].startZ 540m
param *.uav[42].startX 2185m
param *.uav[42].startY 3026m
param *.uav[42].startZ 778m
param *.uav[43].startX 3537m
param *.uav[43].startY 965m
param *.uav[43].startZ 539m
param *.uav[44].startX 312m
param *.uav[44].startY 1262m
param *.uav[44].startZ 540m
param *.uav[45].startX 2185m
param *.uav[45].startY 3026m
param *.uav[45].startZ 778m
param *.uav[46].startX 3537m
param *.uav[46].startY 965m
param *.uav[46].startZ 539m
param *.uav[47].startX 312m
param *.uav[47].startY 1262m
param *.uav[47].startZ 540m
param *.uav[48].startX 2185m
param *.uav[48].startY 3026m
param *.uav[48].startZ 778m
param *.uav[49].startX 3537m
param *.uav[49].startY 965m
param *.uav[49].startZ 539m
param *.uav[50].startX 3537m
param *.uav[50].startY 965m
param *.uav[50].startZ 539m
param *.uav[51].startX 312m
param *.uav[51].startY 1262m
param *.uav[51].startZ 540m
param *.uav[52].startX 2185m
param *.uav[52].startY 3026m
param *.uav[52].startZ 778m
param *.uav[53].startX 3537m
param *.uav[53].startY 965m
param *.uav[53].startZ 539m
param *.uav[54].startX 312m
param *.uav[54].startY 1262m
param *.uav[54].startZ 540m
param *.uav[55].startX 2185m
param *.uav[55].startY 3026m
param *.uav[55].startZ 778m
param *.uav[56].startX 3537m
param *.uav[56].startY 965m
param *.uav[56].startZ 539m
param *.uav[57].startX 312m
param *.uav[57].startY 1262m
param *.uav[57].startZ 540m
param *.uav[58].startX 2185m
param *.uav[58].startY 3026m
param *.uav[58].startZ 778m
param *.uav[59].startX 3537m
param *.uav[59].startY 965m
param *.uav[59].startZ 539m
param *.uav[60].startX 3537m
param *.uav[60].startY 965m
param *.uav[60].startZ 539m
param *.uav[61].startX 312m
param *.uav[61].startY 1262m
param *.uav[61].startZ 540m
param *.uav[62].startX 2185m
param *.uav[62].startY 3026m
param *.uav[62].startZ 778m
param *.uav[63].startX 3537m
param *.uav[63].startY 965m
param *.uav[63].startZ 539m
param *.uav[64].startX 312m
param *.uav[64].startY 1262m
param *.uav[64].startZ 540m
param *.uav[65].startX 2185m
param *.uav[65].startY 3026m
param *.uav[65].startZ 778m
param *.uav[66].startX 3537m
param *.uav[66].startY 965m
param *.uav[66].startZ 539m
param *.uav[67].startX 312m
param *.uav[67].startY 1262m
param *.uav[67].startZ 540m
param *.uav[68].startX 2185m
param *.uav[68].startY 3026m
param *.uav[68].startZ 778m
param *.uav[69].startX 3537m
param *.uav[69].startY 965m
param *.uav[69].startZ 539m
param *.uav[70].startX 3537m
param *.uav[70].startY 965m
param *.uav[70].startZ 539m
param *.uav[71].startX 312m
param *.uav[71].startY 1262m
param *.uav[71].startZ 540m
param *.uav[72].startX 2185m
param *.uav[72].startY 3026m
param *.uav[72].startZ 778m
param *.uav[73].startX 3537m
param *.uav[73].startY 965m
param *.uav[73].startZ 539m
param *.uav[74].startX 312m
param *.uav[74].startY 1262m
param *.uav[74].startZ 540m
param *.uav[75].startX 2185m
param *.uav[75].startY 3026m
param *.uav[75].startZ 778m
param *.uav[76].startX 3537m
param *.uav[76].startY 965m
param *.uav[76].startZ 539m
param *.uav[77].startX 312m
param *.uav[77].startY 1262m
param *.uav[77].startZ 540m
param *.uav[78].startX 2185m
param *.uav[78].startY 3026m
param *.uav[78].startZ 778m
param *.uav[79].startX 3537m
param *.uav[79].startY 965m
param *.uav[79].startZ 539m
param *.uav[80].startX 3537m
param *.uav[80].startY 965m
param *.uav[80].startZ 539m
param *.uav[81].startX 312m
param *.uav[81].startY 1262m
param *.uav[81].startZ 540m
param *.uav[82].startX 2185m
param *.uav[82].startY 3026m
param *.uav[82].startZ 778m
param *.uav[83].startX 3537m
param *.uav[83].startY 965m
param *.uav[83].startZ 539m
param *.uav[84].startX 312m
param *.uav[84].startY 1262m
param *.uav[84].startZ 540m
param *.uav[85].startX 2185m
param *.uav[85].startY 3026m
param *.uav[85].startZ 778m
param *.uav[86].startX 3537m
param *.uav[86].startY 965m
param *.uav[86].startZ 539m
param *.uav[87].startX 312m
param *.uav[87].startY 1262m
param *.uav[87].startZ 540m
param *.uav[88].startX 2185m
param *.uav[88].startY 3026m
param *.uav[88].startZ 778m
param *.uav[89].startX 3537m
param *.uav[89].startY 965m
param *.uav[89].startZ 539m
param *.uav[90].startX 3537m
param *.uav[90].startY 965m
param *.uav[90].startZ 539m
param *.uav[91].startX 312m
param *.uav[91].startY 1262m
param *.uav[91].startZ 540m
param *.uav[92].startX 2185m
param *.uav[92].startY 3026m
param *.uav[92].startZ 778m
param *.uav[93].startX 3537m
param *.uav[93].startY 965m
param *.uav[93].startZ 539m
param *.uav[94].startX 312m
param *.uav[94].startY 1262m
param *.uav[94].startZ 540m
param *.uav[95].startX 2185m
param *.uav[95].startY 3026m
param *.uav[95].startZ 778m
param *.uav[96].startX 3537m
param *.uav[96].startY 965m
param *.uav[96].startZ 539m
param *.uav[97].startX 312m
param *.uav[97].startY 1262m
param *.uav[97].startZ 540m
param *.uav[98].startX 2185m
param *.uav[98].startY 3026m
param *.uav[98].startZ 778m
param *.uav[99].startX 3537m
param *.uav[99].startY 965m
param *.uav[99].startZ 539m
param *.osgEarthScene.scene "\"boston.earth\""
param *.playgroundLatitude 42.3558
param *.playgroundLongitude -71.0677
param *.playgroundWidth 400m
param *.playgroundHeight 200m
param *.channelController.connectionColor "\"#0000FF40\""
param *.channelController.showConnections false
param *.uav[*].modelURL "\"quadrocopter.small.obj.15.scale.0,0,90.rot\""
param *.uav[*].labelColor "\"#FF7C00CC\""
param *.uav[*].label2Color "\"#FF7C00EE\""
param *.uav[*].batteryCapacity 5200mAh
param *.uav[*].batteryRemaining uav[index].batteryCapacity
param *.uav[*].predictionQuantile 0.95
param *.uav[*].replacementMethod 2
param *.uav[*].weightedSumWeight 0.5
param *.cs[*].modelURL "\"chargingstation_v1.osgt.2.scale.0,0,0.rot.0,0,-15e-1.trans\""
param *.cs[*].spotsWaiting 999
param *.cs[*].spotsCharging 999
param *.cs[*].chargeEffectivenessPercentage 100
param *.cs[*].nonLinearPhaseStartPercentage 85
param *.cs[*].chargeCurrent 6.0A
param *.cs[*].prioritizeFastCharge true
param *.missionControl.replacementSearchMethod 0
param *.*.timeStep 9s

scalar OsgEarthNet.uav[0] utilizationSecMission 1342.8248956566
scalar OsgEarthNet.uav[0] utilizationSecMaintenance 579.77532591696
scalar OsgEarthNet.uav[0] utilizationSecCharge 7210
scalar OsgEarthNet.uav[0] utilizationSecIdle 250067.39877843
scalar OsgEarthNet.uav[0] utilizationEnergyMission 6198.1944122314
scalar OsgEarthNet.uav[0] utilizationEnergyMaintenance 2812.5573348999
scalar OsgEarthNet.uav[0] utilizationEnergyCharge 9010.7568359375
scalar OsgEarthNet.uav[0] utilizationEnergyOverdrawMission 0
scalar OsgEarthNet.uav[0] utilizationEnergyOverdrawMaintenance 0
scalar OsgEarthNet.uav[0] utilizationCountMissions 2
scalar OsgEarthNet.uav[0] utilizationCountManeuversMission 22
scalar OsgEarthNet.uav[0] utilizationCountManeuversMaintenance 4
scalar OsgEarthNet.uav[0] utilizationCountChargeState 2
scalar OsgEarthNet.uav[0] utilizationCountOverdrawnAfterMission 0
scalar OsgEarthNet.uav[0] utilizationCountIdleState 3
scalar OsgEarthNet.uav[0] utilizationFail 0
scalar OsgEarthNet.uav[0] simulationTime 259200
scalar OsgEarthNet.uav[1] utilizationSecMission 22261.090111276
scalar OsgEarthNet.uav[1] utilizationSecMaintenance 15743.154759819
scalar OsgEarthNet.uav[1] utilizationSecCharge 137131.99510672
scalar OsgEarthNet.uav[1] utilizationSecIdle 84063.759022191
scalar OsgEarthNet.uav[1] utilizationEnergyMission 102718.86650848
scalar OsgEarthNet.uav[1] utilizationEnergyMaintenance 73301.422576904
scalar OsgEarthNet.uav[1] utilizationEnergyCharge 171155.85205078
scalar OsgEarthNet.uav[1] utilizationEnergyOverdrawMission 0
scalar OsgEarthNet.uav[1] utilizationEnergyOverdrawMaintenance 0
scalar OsgEarthNet.uav[1] utilizationCountMissions 39
scalar OsgEarthNet.uav[1] utilizationCountManeuversMission 356
scalar OsgEarthNet.uav[1] utilizationCountManeuversMaintenance 78
scalar OsgEarthNet.uav[1] utilizationCountChargeState 39
scalar OsgEarthNet.uav[1] utilizationCountOverdrawnAfterMission 0
scalar OsgEarthNet.uav[1] utilizationCountIdleState 39
scalar OsgEarthNet.uav[1] utilizationFail 0
scalar OsgEarthNet.uav[1] simulationTime 259200
scalar OsgEarthNet.uav[2] utilizationSecMission 29898.95361121
scalar OsgEarthNet.uav[2] utilizationSecMaintenance 18737.77234982
scalar OsgEarthNet.uav[2] utilizationSecCharge 178671.27303897
scalar OsgEarthNet.uav[2] utilizationSecIdle 31892
scalar OsgEarthNet.uav[2] utilizationEnergyMission 138682.27413513
scalar OsgEarthNet.uav[2] utilizationEnergyMaintenance 86616.866291046
scalar OsgEarthNet.uav[2] utilizationEnergyCharge 224845.70556641
scalar OsgEarthNet.uav[2] utilizationEnergyOverdrawMission 0
scalar OsgEarthNet.uav[2] utilizationEnergyOverdrawMaintenance 0
scalar OsgEarthNet.uav[2] utilizationCountMissions 49
scalar OsgEarthNet.uav[2] utilizationCountManeuversMission 497
scalar OsgEarthNet.uav[2] utilizationCountManeuversMaintenance 97
scalar OsgEarthNet.uav[2] utilizationCountChargeState 49
scalar OsgEarthNet.uav[2] utilizationCountOverdrawnAfterMission 0
scalar OsgEarthNet.uav[2] utilizationCountIdleState 49
scalar OsgEarthNet.uav[2] utilizationFail 0
scalar OsgEarthNet.uav[2] simulationTime 259200
scalar OsgEarthNet.uav[3] utilizationSecMission 315.14774216574
scalar OsgEarthNet.uav[3] utilizationSecMaintenance 645.51430388878
scalar OsgEarthNet.uav[3] utilizationSecCharge 3590
scalar OsgEarthNet.uav[3] utilizationSecIdle 254649.33695395
scalar OsgEarthNet.uav[3] utilizationEnergyMission 1623.581451416
scalar OsgEarthNet.uav[3] utilizationEnergyMaintenance 2865.2679672241
scalar OsgEarthNet.uav[3] utilizationEnergyCharge 4488.8525390625
scalar OsgEarthNet.uav[3] utilizationEnergyOverdrawMission 0
scalar OsgEarthNet.uav[3] utilizationEnergyOverdrawMaintenance 0
scalar OsgEarthNet.uav[3] utilizationCountMissions 1
scalar OsgEarthNet.uav[3] utilizationCountManeuversMission 7
scalar OsgEarthNet.uav[3] utilizationCountManeuversMaintenance 2
scalar OsgEarthNet.uav[3] utilizationCountChargeState 1
scalar OsgEarthNet.uav[3] utilizationCountOverdrawnAfterMission 0
scalar OsgEarthNet.uav[3] utilizationCountIdleState 2
scalar OsgEarthNet.uav[3] utilizationFail 0
scalar OsgEarthNet.uav[3] simulationTime 259200
scalar OsgEarthNet.uav[4] utilizationSecMission 29605.36428362
scalar OsgEarthNet.uav[4] utilizationSecMaintenance 18919.811474275
scalar OsgEarthNet.uav[4] utilizationSecCharge 178510
scalar OsgEarthNet.uav[4] utilizationSecIdle 32164.823242105
scalar OsgEarthNet.uav[4] utilizationEnergyMission 135858.93991089
scalar OsgEarthNet.uav[4] utilizationEnergyMaintenance 88480.934307098
scalar OsgEarthNet.uav[4] utilizationEnergyCharge 223993.38598633
scalar OsgEarthNet.uav[4] utilizationEnergyOverdrawMission 0
scalar OsgEarthNet.uav[4] utilizationEnergyOverdrawMaintenance 0
scalar OsgEarthNet.uav[4] utilizationCountMissions 49
scalar OsgEarthNet.uav[4] utilizationCountManeuversMission 485
scalar OsgEarthNet.uav[4] utilizationCountManeuversMaintenance 97
scalar OsgEarthNet.uav[4] utilizationCountChargeState 49
scalar OsgEarthNet.uav[4] utilizationCountOverdrawnAfterMission 0
scalar OsgEarthNet.uav[4] utilizationCountIdleState 50
scalar OsgEarthNet.uav[4] utilizationFail 0
scalar OsgEarthNet.uav[4] simulationTime 259200
scalar OsgEarthNet.uav[5] utilizationSecMission 25584.774840802
scalar OsgEarthNet.uav[5] utilizationSecMaintenance 14662.379248667
scalar OsgEarthNet.uav[5] utilizationSecCharge 144921.17186115
scalar OsgEarthNet.uav[5] utilizationSecIdle 74031.673049383
scalar OsgEarthNet.uav[5] utilizationEnergyMission 117855.40145111
scalar OsgEarthNet.uav[5] utilizationEnergyMaintenance 67790.715923309
scalar OsgEarthNet.uav[5] utilizationEnergyCharge 183220.52441406
scalar OsgEarthNet.uav[5] utilizationEnergyOverdrawMission 0
scalar OsgEarthNet.uav[5] utilizationEnergyOverdrawMaintenance 0
scalar OsgEarthNet.uav[5] utilizationCountMissions 40
scalar OsgEarthNet.uav[5] utilizationCountManeuversMission 404
scalar OsgEarthNet.uav[5] utilizationCountManeuversMaintenance 80
scalar OsgEarthNet.uav[5] utilizationCountChargeState 40
scalar OsgEarthNet.uav[5] utilizationCountOverdrawnAfterMission 0
scalar OsgEarthNet.uav[5] utilizationCountIdleState 40
scalar OsgEarthNet.uav[5] utilizationFail 0
scalar OsgEarthNet.uav[5] simulationTime 259200
scalar OsgEarthNet.uav[6] utilizationSecMission 28031.662155423
scalar OsgEarthNet.uav[6] utilizationSecMaintenance 17230.819914442
scalar OsgEarthNet.uav[6] utilizationSecCharge 165063.49865181
scalar OsgEarthNet.uav[6] utilizationSecIdle 48874.018278323
scalar OsgEarthNet.uav[6] utilizationEnergyMission 130902.85730743
scalar OsgEarthNet.uav[6] utilizationEnergyMaintenance 79962.332633972
scalar OsgEarthNet.uav[6] utilizationEnergyCharge 207435.53491211
scalar OsgEarthNet.uav[6] utilizationEnergyOverdrawMission 0
scalar OsgEarthNet.uav[6] utilizationEnergyOverdrawMaintenance 0
scalar OsgEarthNet.uav[6] utilizationCountMissions 46
scalar OsgEarthNet.uav[6] utilizationCountManeuversMission 451
scalar OsgEarthNet.uav[6] utilizationCountManeuversMaintenance 92
scalar OsgEarthNet.uav[6] utilizationCountChargeState 46
scalar OsgEarthNet.uav[6] utilizationCountOverdrawnAfterMission 0
scalar OsgEarthNet.uav[6] utilizationCountIdleState 46
scalar OsgEarthNet.uav[6] utilizationFail 0
scalar OsgEarthNet.uav[6] simulationTime 259200
scalar OsgEarthNet.uav[7] utilizationSecMission 16394.391540121
scalar OsgEarthNet.uav[7] utilizationSecMaintenance 10859.057521776
scalar OsgEarthNet.uav[7] utilizationSecCharge 98299.234851888
scalar OsgEarthNet.uav[7] utilizationSecIdle 133647.31508621
scalar OsgEarthNet.uav[7] utilizationEnergyMission 75561.284660339
scalar OsgEarthNet.uav[7] utilizationEnergyMaintenance 50409.462123871
scalar OsgEarthNet.uav[7] utilizationEnergyCharge 123405.44335938
scalar OsgEarthNet.uav[7] utilizationEnergyOverdrawMission 0
scalar OsgEarthNet.uav[7] utilizationEnergyOverdrawMaintenance 0
scalar OsgEarthNet.uav[7] utilizationCountMissions 28
scalar OsgEarthNet.uav[7] utilizationCountManeuversMission 269
scalar OsgEarthNet.uav[7] utilizationCountManeuversMaintenance 56
scalar OsgEarthNet.uav[7] utilizationCountChargeState 28
scalar OsgEarthNet.uav[7] utilizationCountOverdrawnAfterMission 0
scalar OsgEarthNet.uav[7] utilizationCountIdleState 28
scalar OsgEarthNet.uav[7] utilizationFail 0
scalar OsgEarthNet.uav[7] simulationTime 259200
scalar OsgEarthNet.uav[8] utilizationSecMission 10989.397008923
scalar OsgEarthNet.uav[8] utilizationSecMaintenance 6627.9604130985
scalar OsgEarthNet.uav[8] utilizationSecCharge 62263.010497313
scalar OsgEarthNet.uav[8] utilizationSecIdle 179319.63108067
scalar OsgEarthNet.uav[8] utilizationEnergyMission 51112.706699371
scalar OsgEarthNet.uav[8] utilizationEnergyMaintenance 30727.069694519
scalar OsgEarthNet.uav[8] utilizationEnergyCharge 78473.744873047
scalar OsgEarthNet.uav[8] utilizationEnergyOverdrawMission 0
scalar OsgEarthNet.uav[8] utilizationEnergyOverdrawMaintenance 0
scalar OsgEarthNet.uav[8] utilizationCountMissions 18
scalar OsgEarthNet.uav[8] utilizationCountManeuversMission 177
scalar OsgEarthNet.uav[8] utilizationCountManeuversMaintenance 36
scalar OsgEarthNet.uav[8] utilizationCountChargeState 18
scalar OsgEarthNet.uav[8] utilizationCountOverdrawnAfterMission 0
scalar OsgEarthNet.uav[8] utilizationCountIdleState 18
scalar OsgEarthNet.uav[8] utilizationFail 0
scalar OsgEarthNet.uav[8] simulationTime 259200
scalar OsgEarthNet.uav[9] utilizationSecMission 24673.091165523
scalar OsgEarthNet.uav[9] utilizationSecMaintenance 18061.01109957
scalar OsgEarthNet.uav[9] utilizationSecCharge 156380
scalar OsgEarthNet.uav[9] utilizationSecIdle 60085.896734907
scalar OsgEarthNet.uav[9] utilizationEnergyMission 114270.68506264
scalar OsgEarthNet.uav[9] utilizationEnergyMaintenance 84823.306880951
scalar OsgEarthNet.uav[9] utilizationEnergyCharge 196077.36279297
scalar OsgEarthNet.uav[9] utilizationEnergyOverdrawMission 0
scalar OsgEarthNet.uav[9] utilizationEnergyOverdrawMaintenance 0
scalar OsgEarthNet.uav[9] utilizationCountMissions 43
scalar OsgEarthNet.uav[9] utilizationCountManeuversMission 412
scalar OsgEarthNet.uav[9] utilizationCountManeuversMaintenance 87
scalar OsgEarthNet.uav[9] utilizationCountChargeState 43
scalar OsgEarthNet.uav[9] utilizationCountOverdrawnAfterMission 0
scalar OsgEarthNet.uav[9] utilizationCountIdleState 44
scalar OsgEarthNet.uav[9] utilizationFail 0
scalar OsgEarthNet.uav[9] simulationTime 259200
scalar OsgEarthNet.uav[10] utilizationSecMission 313.66140879233
scalar OsgEarthNet.uav[10] utilizationSecMaintenance 473.03391658586
scalar OsgEarthNet.uav[10] utilizationSecCharge 3150
scalar OsgEarthNet.uav[10] utilizationSecIdle 255263.30367462
scalar OsgEarthNet.uav[10] utilizationEnergyMission 1389.0661468506
scalar OsgEarthNet.uav[10] utilizationEnergyMaintenance 2307.1832504272
scalar OsgEarthNet.uav[10] utilizationEnergyCharge 3696.2529296875
scalar OsgEarthNet.uav[10] utilizationEnergyOverdrawMission 0
scalar OsgEarthNet.uav[10] utilizationEnergyOverdrawMaintenance 0
scalar OsgEarthNet.uav[10] utilizationCountMissions 1
scalar OsgEarthNet.uav[10] utilizationCountManeuversMission 5
scalar OsgEarthNet.uav[10] utilizationCountManeuversMaintenance 2
scalar OsgEarthNet.uav[10] utilizationCountChargeState 1
scalar OsgEarthNet.uav[10] utilizationCountOverdrawnAfterMission 0
scalar OsgEarthNet.uav[10] utilizationCountIdleState 2
scalar OsgEarthNet.uav[10] utilizationFail 0
scalar OsgEarthNet.uav[10] simulationTime 259200
scalar OsgEarthNet.uav[11] utilizationSecMission 694.00169469977
scalar OsgEarthNet.uav[11] utilizationSecMaintenance 349.76607937241
scalar OsgEarthNet.uav[11] utilizationSecCharge 3870
scalar OsgEarthNet.uav[11] utilizationSecIdle 254286.23122593
scalar OsgEarthNet.uav[11] utilizationEnergyMission 3374.2822113037
scalar OsgEarthNet.uav[11] utilizationEnergyMaintenance 1536.4905509949
scalar OsgEarthNet.uav[11] utilizationEnergyCharge 4910.7700195312
scalar OsgEarthNet.uav[11] utilizationEnergyOverdrawMission 0
scalar OsgEarthNet.uav[11] utilizationEnergyOverdrawMaintenance 0
scalar OsgEarthNet.uav[11] utilizationCountMissions 1
scalar OsgEarthNet.uav[11] utilizationCountManeuversMission 13
scalar OsgEarthNet.uav[11] utilizationCountManeuversMaintenance 2
scalar OsgEarthNet.uav[11] utilizationCountChargeState 1
scalar OsgEarthNet.uav[11] utilizationCountOverdrawnAfterMission 0
scalar OsgEarthNet.uav[11] utilizationCountIdleState 2
scalar OsgEarthNet.uav[11] utilizationFail 0
scalar OsgEarthNet.uav[11] simulationTime 259200
scalar OsgEarthNet.uav[12] utilizationSecMission 29460.452354287
scalar OsgEarthNet.uav[12] utilizationSecMaintenance 17330.327031797
scalar OsgEarthNet.uav[12] utilizationSecCharge 171840
scalar OsgEarthNet.uav[12] utilizationSecIdle 40569.219613916
scalar OsgEarthNet.uav[12] utilizationEnergyMission 135870.94076538
scalar OsgEarthNet.uav[12] utilizationEnergyMaintenance 79719.924430708
scalar OsgEarthNet.uav[12] utilizationEnergyCharge 215684.12060547
scalar OsgEarthNet.uav[12] utilizationEnergyOverdrawMission 0
scalar OsgEarthNet.uav[12] utilizationEnergyOverdrawMaintenance 0
scalar OsgEarthNet.uav[12] utilizationCountMissions 47
scalar OsgEarthNet.uav[12] utilizationCountManeuversMission 469
scalar OsgEarthNet.uav[12] utilizationCountManeuversMaintenance 95
scalar OsgEarthNet.uav[12] utilizationCountChargeState 47
scalar OsgEarthNet.uav[12] utilizationCountOverdrawnAfterMission 0
scalar OsgEarthNet.uav[12] utilizationCountIdleState 48
scalar OsgEarthNet.uav[12] utilizationFail 0
scalar OsgEarthNet.uav[12] simulationTime 259200
scalar OsgEarthNet.uav[13] utilizationSecMission 650.68693590098
scalar OsgEarthNet.uav[13] utilizationSecMaintenance 350.31285707965
scalar OsgEarthNet.uav[13] utilizationSecCharge 3550
scalar OsgEarthNet.uav[13] utilizationSecIdle 254648.99920702
scalar OsgEarthNet.uav[13] utilizationEnergyMission 2924.6260375977
scalar OsgEarthNet.uav[13] utilizationEnergyMaintenance 1492.0656051636
scalar OsgEarthNet.uav[13] utilizationEnergyCharge 4416.6923828125
scalar OsgEarthNet.uav[13] utilizationEnergyOverdrawMission 0
scalar OsgEarthNet.uav[13] utilizationEnergyOverdrawMaintenance 0
scalar OsgEarthNet.uav[13] utilizationCountMissions 1
scalar OsgEarthNet.uav[13] utilizationCountManeuversMission 9
scalar OsgEarthNet.uav[13] utilizationCountManeuversMaintenance 2
scalar OsgEarthNet.uav[13] utilizationCountChargeState 1
scalar OsgEarthNet.uav[13] utilizationCountOverdrawnAfterMission 0
scalar OsgEarthNet.uav[13] utilizationCountIdleState 2
scalar OsgEarthNet.uav[13] utilizationFail 0
scalar OsgEarthNet.uav[13] simulationTime 259200
scalar OsgEarthNet.uav[14] utilizationSecMission 3302.0395198933
scalar OsgEarthNet.uav[14] utilizationSecMaintenance 2580.1946182472
scalar OsgEarthNet.uav[14] utilizationSecCharge 21950
scalar OsgEarthNet.uav[14] utilizationSecIdle 231367.76486186
scalar OsgEarthNet.uav[14] utilizationEnergyMission 15345.193214416
scalar OsgEarthNet.uav[14] utilizationEnergyMaintenance 12129.109535217
scalar OsgEarthNet.uav[14] utilizationEnergyCharge 27518.176025391
scalar OsgEarthNet.uav[14] utilizationEnergyOverdrawMission 0
scalar OsgEarthNet.uav[14] utilizationEnergyOverdrawMaintenance 0
scalar OsgEarthNet.uav[14] utilizationCountMissions 6
scalar OsgEarthNet.uav[14] utilizationCountManeuversMission 53
scalar OsgEarthNet.uav[14] utilizationCountManeuversMaintenance 12
scalar OsgEarthNet.uav[14] utilizationCountChargeState 6
scalar OsgEarthNet.uav[14] utilizationCountOverdrawnAfterMission 0
scalar OsgEarthNet.uav[14] utilizationCountIdleState 7
scalar OsgEarthNet.uav[14] utilizationFail 0
scalar OsgEarthNet.uav[14] simulationTime 259200
scalar OsgEarthNet.uav[15] utilizationSecMission 30030.493591363
scalar OsgEarthNet.uav[15] utilizationSecMaintenance 16887.505408637
scalar OsgEarthNet.uav[15] utilizationSecCharge 170850
scalar OsgEarthNet.uav[15] utilizationSecIdle 41432
scalar OsgEarthNet.uav[15] utilizationEnergyMission 138987.72020968
scalar OsgEarthNet.uav[15] utilizationEnergyMaintenance 78394.020046234
scalar OsgEarthNet.uav[15] utilizationEnergyCharge 214301.43334961
scalar OsgEarthNet.uav[15] utilizationEnergyOverdrawMission 0
scalar OsgEarthNet.uav[15] utilizationEnergyOverdrawMaintenance 0
scalar OsgEarthNet.uav[15] utilizationCountMissions 47
scalar OsgEarthNet.uav[15] utilizationCountManeuversMission 505
scalar OsgEarthNet.uav[15] utilizationCountManeuversMaintenance 94
scalar OsgEarthNet.uav[15] utilizationCountChargeState 47
scalar OsgEarthNet.uav[15] utilizationCountOverdrawnAfterMission 0
scalar OsgEarthNet.uav[15] utilizationCountIdleState 48
scalar OsgEarthNet.uav[15] utilizationFail 0
scalar OsgEarthNet.uav[15] simulationTime 259200
scalar OsgEarthNet.uav[16] utilizationSecMission 19781.564536546
scalar OsgEarthNet.uav[16] utilizationSecMaintenance 13640.906273215
scalar OsgEarthNet.uav[16] utilizationSecCharge 123302.5756984
scalar OsgEarthNet.uav[16] utilizationSecIdle 102474.95249184
scalar OsgEarthNet.uav[16] utilizationEnergyMission 91374.568054199
scalar OsgEarthNet.uav[16] utilizationEnergyMaintenance 63383.477653503
scalar OsgEarthNet.uav[16] utilizationEnergyCharge 155242.12841797
scalar OsgEarthNet.uav[16] utilizationEnergyOverdrawMission 0
scalar OsgEarthNet.uav[16] utilizationEnergyOverdrawMaintenance 0
scalar OsgEarthNet.uav[16] utilizationCountMissions 34
scalar OsgEarthNet.uav[16] utilizationCountManeuversMission 321
scalar OsgEarthNet.uav[16] utilizationCountManeuversMaintenance 68
scalar OsgEarthNet.uav[16] utilizationCountChargeState 34
scalar OsgEarthNet.uav[16] utilizationCountOverdrawnAfterMission 0
scalar OsgEarthNet.uav[16] utilizationCountIdleState 34
scalar OsgEarthNet.uav[16] utilizationFail 0
scalar OsgEarthNet.uav[16] simulationTime 259200
scalar OsgEarthNet.uav[17] utilizationSecMission 27249.238200078
scalar OsgEarthNet.uav[17] utilizationSecMaintenance 19968.325566184
scalar OsgEarthNet.uav[17] utilizationSecCharge 170944.08262647
scalar OsgEarthNet.uav[17] utilizationSecIdle 41038.352607263
scalar OsgEarthNet.uav[17] utilizationEnergyMission 126961.20522308
scalar OsgEarthNet.uav[17] utilizationEnergyMaintenance 91561.883209229
scalar OsgEarthNet.uav[17] utilizationEnergyCharge 216122.03881836
scalar OsgEarthNet.uav[17] utilizationEnergyOverdrawMission 0
scalar OsgEarthNet.uav[17] utilizationEnergyOverdrawMaintenance 0
scalar OsgEarthNet.uav[17] utilizationCountMissions 47
scalar OsgEarthNet.uav[17] utilizationCountManeuversMission 445
scalar OsgEarthNet.uav[17] utilizationCountManeuversMaintenance 94
scalar OsgEarthNet.uav[17] utilizationCountChargeState 47
scalar OsgEarthNet.uav[17] utilizationCountOverdrawnAfterMission 0
scalar OsgEarthNet.uav[17] utilizationCountIdleState 47
scalar OsgEarthNet.uav[17] utilizationFail 0
scalar OsgEarthNet.uav[17] simulationTime 259200
scalar OsgEarthNet.uav[18] utilizationSecMission 694.00169469977
scalar OsgEarthNet.uav[18] utilizationSecMaintenance 338.49695459722
scalar OsgEarthNet.uav[18] utilizationSecCharge 3730
scalar OsgEarthNet.uav[18] utilizationSecIdle 254437.5003507
scalar OsgEarthNet.uav[18] utilizationEnergyMission 3234.646484375
scalar OsgEarthNet.uav[18] utilizationEnergyMaintenance 1424.6265983582
scalar OsgEarthNet.uav[18] utilizationEnergyCharge 4659.2744140625
scalar OsgEarthNet.uav[18] utilizationEnergyOverdrawMission 0
scalar OsgEarthNet.uav[18] utilizationEnergyOverdrawMaintenance 0
scalar OsgEarthNet.uav[18] utilizationCountMissions 1
scalar OsgEarthNet.uav[18] utilizationCountManeuversMission 13
scalar OsgEarthNet.uav[18] utilizationCountManeuversMaintenance 2
scalar OsgEarthNet.uav[18] utilizationCountChargeState 1
scalar OsgEarthNet.uav[18] utilizationCountOverdrawnAfterMission 0
scalar OsgEarthNet.uav[18] utilizationCountIdleState 2
scalar OsgEarthNet.uav[18] utilizationFail 0
scalar OsgEarthNet.uav[18] simulationTime 259200
scalar OsgEarthNet.uav[19] utilizationSecMission 650.68693590098
scalar OsgEarthNet.uav[19] utilizationSecMaintenance 350.31285707965
scalar OsgEarthNet.uav[19] utilizationSecCharge 3780
scalar OsgEarthNet.uav[19] utilizationSecIdle 254418.99920702
scalar OsgEarthNet.uav[19] utilizationEnergyMission 3102.5480041504
scalar OsgEarthNet.uav[19] utilizationEnergyMaintenance 1666.6884384155
scalar OsgEarthNet.uav[19] utilizationEnergyCharge 4769.2368164062
scalar OsgEarthNet.uav[19] utilizationEnergyOverdrawMission 0
scalar OsgEarthNet.uav[19] utilizationEnergyOverdrawMaintenance 0
scalar OsgEarthNet.uav[19] utilizationCountMissions 1
scalar OsgEarthNet.uav[19] utilizationCountManeuversMission 9
scalar OsgEarthNet.uav[19] utilizationCountManeuversMaintenance 2
scalar OsgEarthNet.uav[19] utilizationCountChargeState 1
scalar OsgEarthNet.uav[19] utilizationCountOverdrawnAfterMission 0
scalar OsgEarthNet.uav[19] utilizationCountIdleState 2
scalar OsgEarthNet.uav[19] utilizationFail 0
scalar OsgEarthNet.uav[19] simulationTime 259200
scalar OsgEarthNet.uav[20] utilizationSecMission 16750.645202989
scalar OsgEarthNet.uav[20] utilizationSecMaintenance 10950.290213735
scalar OsgEarthNet.uav[20] utilizationSecCharge 103020
scalar OsgEarthNet.uav[20] utilizationSecIdle 128479.06358328
scalar OsgEarthNet.uav[20] utilizationEnergyMission 77946.9061203
scalar OsgEarthNet.uav[20] utilizationEnergyMaintenance 51736.813995361
scalar OsgEarthNet.uav[20] utilizationEnergyCharge 129538.98681641
scalar OsgEarthNet.uav[20] utilizationEnergyOverdrawMission 0
scalar OsgEarthNet.uav[20] utilizationEnergyOverdrawMaintenance 0
scalar OsgEarthNet.uav[20] utilizationCountMissions 28
scalar OsgEarthNet.uav[20] utilizationCountManeuversMission 271
scalar OsgEarthNet.uav[20] utilizationCountManeuversMaintenance 56
scalar OsgEarthNet.uav[20] utilizationCountChargeState 28
scalar OsgEarthNet.uav[20] utilizationCountOverdrawnAfterMission 0
scalar OsgEarthNet.uav[20] utilizationCountIdleState 29
scalar OsgEarthNet.uav[20] utilizationFail 0
scalar OsgEarthNet.uav[20] simulationTime 259200
scalar OsgEarthNet.uav[21] utilizationSecMission 27157.70835796
scalar OsgEarthNet.uav[21] utilizationSecMaintenance 17921.234816548
scalar OsgEarthNet.uav[21] utilizationSecCharge 164500
scalar OsgEarthNet.uav[21] utilizationSecIdle 49621.055825492
scalar OsgEarthNet.uav[21] utilizationEnergyMission 126327.06766126
scalar OsgEarthNet.uav[21] utilizationEnergyMaintenance 82969.034355164
scalar OsgEarthNet.uav[21] utilizationEnergyCharge 206652.21948242
scalar OsgEarthNet.uav[21] utilizationEnergyOverdrawMission 0
scalar OsgEarthNet.uav[21] utilizationEnergyOverdrawMaintenance 0
scalar OsgEarthNet.uav[21] utilizationCountMissions 45
scalar OsgEarthNet.uav[21] utilizationCountManeuversMission 455
scalar OsgEarthNet.uav[21] utilizationCountManeuversMaintenance 91
scalar OsgEarthNet.uav[21] utilizationCountChargeState 45
scalar OsgEarthNet.uav[21] utilizationCountOverdrawnAfterMission 0
scalar OsgEarthNet.uav[21] utilizationCountIdleState 46
scalar OsgEarthNet.uav[21] utilizationFail 0
scalar OsgEarthNet.uav[21] simulationTime 259200
scalar OsgEarthNet.uav[22] utilizationSecMission 28138.149554574
scalar OsgEarthNet.uav[22] utilizationSecMaintenance 18405.049582099
scalar OsgEarthNet.uav[22] utilizationSecCharge 171039.3495993
scalar OsgEarthNet.uav[22] utilizationSecIdle 41617.450264031
scalar OsgEarthNet.uav[22] utilizationEnergyMission 130664.92354202
scalar OsgEarthNet.uav[22] utilizationEnergyMaintenance 85105.47095871
scalar OsgEarthNet.uav[22] utilizationEnergyCharge 215595.45996094
scalar OsgEarthNet.uav[22] utilizationEnergyOverdrawMission 0
scalar OsgEarthNet.uav[22] utilizationEnergyOverdrawMaintenance 0
scalar OsgEarthNet.uav[22] utilizationCountMissions 47
scalar OsgEarthNet.uav[22] utilizationCountManeuversMission 460
scalar OsgEarthNet.uav[22] utilizationCountManeuversMaintenance 94
scalar OsgEarthNet.uav[22] utilizationCountChargeState 47
scalar OsgEarthNet.uav[22] utilizationCountOverdrawnAfterMission 0
scalar OsgEarthNet.uav[22] utilizationCountIdleState 47
scalar OsgEarthNet.uav[22] utilizationFail 0
scalar OsgEarthNet.uav[22] simulationTime 259200
scalar OsgEarthNet.uav[23] utilizationSecMission 557.08549766445
scalar OsgEarthNet.uav[23] utilizationSecMaintenance 423.57904092458
scalar OsgEarthNet.uav[23] utilizationSecCharge 3750
scalar OsgEarthNet.uav[23] utilizationSecIdle 254469.33446141
scalar OsgEarthNet.uav[23] utilizationEnergyMission 2683.0088653564
scalar OsgEarthNet.uav[23] utilizationEnergyMaintenance 2184.2260971069
scalar OsgEarthNet.uav[23] utilizationEnergyCharge 4717.1005859375
scalar OsgEarthNet.uav[23] utilizationEnergyOverdrawMission 0
scalar OsgEarthNet.uav[23] utilizationEnergyOverdrawMaintenance 0
scalar OsgEarthNet.uav[23] utilizationCountMissions 1
scalar OsgEarthNet.uav[23] utilizationCountManeuversMission 9
scalar OsgEarthNet.uav[23] utilizationCountManeuversMaintenance 2
scalar OsgEarthNet.uav[23] utilizationCountChargeState 1
scalar OsgEarthNet.uav[23] utilizationCountOverdrawnAfterMission 0
scalar OsgEarthNet.uav[23] utilizationCountIdleState 2
scalar OsgEarthNet.uav[23] utilizationFail 0
scalar OsgEarthNet.uav[23] simulationTime 259200
scalar OsgEarthNet.uav[24] utilizationSecMission 17456.671485611
scalar OsgEarthNet.uav[24] utilizationSecMaintenance 13203.87982384
scalar OsgEarthNet.uav[24] utilizationSecCharge 113370
scalar OsgEarthNet.uav[24] utilizationSecIdle 115169.44769055
scalar OsgEarthNet.uav[24] utilizationEnergyMission 80981.875663757
scalar OsgEarthNet.uav[24] utilizationEnergyMaintenance 61487.607479095
scalar OsgEarthNet.uav[24] utilizationEnergyCharge 142042.10571289
scalar OsgEarthNet.uav[24] utilizationEnergyOverdrawMission 0
scalar OsgEarthNet.uav[24] utilizationEnergyOverdrawMaintenance 0
scalar OsgEarthNet.uav[24] utilizationCountMissions 31
scalar OsgEarthNet.uav[24] utilizationCountManeuversMission 281
scalar OsgEarthNet.uav[24] utilizationCountManeuversMaintenance 62
scalar OsgEarthNet.uav[24] utilizationCountChargeState 31
scalar OsgEarthNet.uav[24] utilizationCountOverdrawnAfterMission 0
scalar OsgEarthNet.uav[24] utilizationCountIdleState 32
scalar OsgEarthNet.uav[24] utilizationFail 0
scalar OsgEarthNet.uav[24] simulationTime 259200
scalar OsgEarthNet.uav[25] utilizationSecMission 8282.7665983902
scalar OsgEarthNet.uav[25] utilizationSecMaintenance 2668.3842440194
scalar OsgEarthNet.uav[25] utilizationSecCharge 36230
scalar OsgEarthNet.uav[25] utilizationSecIdle 212018.84815759
scalar OsgEarthNet.uav[25] utilizationEnergyMission 37757.560070038
scalar OsgEarthNet.uav[25] utilizationEnergyMaintenance 12021.57446669
scalar OsgEarthNet.uav[25] utilizationEnergyCharge 45390.448730469
scalar OsgEarthNet.uav[25] utilizationEnergyOverdrawMission 0
scalar OsgEarthNet.uav[25] utilizationEnergyOverdrawMaintenance 0
scalar OsgEarthNet.uav[25] utilizationCountMissions 11
scalar OsgEarthNet.uav[25] utilizationCountManeuversMission 131
scalar OsgEarthNet.uav[25] utilizationCountManeuversMaintenance 22
scalar OsgEarthNet.uav[25] utilizationCountChargeState 10
scalar OsgEarthNet.uav[25] utilizationCountOverdrawnAfterMission 0
scalar OsgEarthNet.uav[25] utilizationCountIdleState 11
scalar OsgEarthNet.uav[25] utilizationFail 0
scalar OsgEarthNet.uav[25] simulationTime 259200
scalar OsgEarthNet.uav[26] utilizationSecMission 5494.3881837148
scalar OsgEarthNet.uav[26] utilizationSecMaintenance 3146.4125297343
scalar OsgEarthNet.uav[26] utilizationSecCharge 32570
scalar OsgEarthNet.uav[26] utilizationSecIdle 217989.19828655
scalar OsgEarthNet.uav[26] utilizationEnergyMission 25985.498512268
scalar OsgEarthNet.uav[26] utilizationEnergyMaintenance 14853.283805847
scalar OsgEarthNet.uav[26] utilizationEnergyCharge 40685.4375
scalar OsgEarthNet.uav[26] utilizationEnergyOverdrawMission 0
scalar OsgEarthNet.uav[26] utilizationEnergyOverdrawMaintenance 0
scalar OsgEarthNet.uav[26] utilizationCountMissions 9
scalar OsgEarthNet.uav[26] utilizationCountManeuversMission 87
scalar OsgEarthNet.uav[26] utilizationCountManeuversMaintenance 18
scalar OsgEarthNet.uav[26] utilizationCountChargeState 9
scalar OsgEarthNet.uav[26] utilizationCountOverdrawnAfterMission 0
scalar OsgEarthNet.uav[26] utilizationCountIdleState 10
scalar OsgEarthNet.uav[26] utilizationFail 0
scalar OsgEarthNet.uav[26] simulationTime 259200
scalar OsgEarthNet.uav[27] utilizationSecMission 24034.969721827
scalar OsgEarthNet.uav[27] utilizationSecMaintenance 17937.617892893
scalar OsgEarthNet.uav[27] utilizationSecCharge 154397.39308084
scalar OsgEarthNet.uav[27] utilizationSecIdle 62830.018304444
scalar OsgEarthNet.uav[27] utilizationEnergyMission 111599.03447723
scalar OsgEarthNet.uav[27] utilizationEnergyMaintenance 82789.466201782
scalar OsgEarthNet.uav[27] utilizationEnergyCharge 194151.94384766
scalar OsgEarthNet.uav[27] utilizationEnergyOverdrawMission 0
scalar OsgEarthNet.uav[27] utilizationEnergyOverdrawMaintenance 0
scalar OsgEarthNet.uav[27] utilizationCountMissions 43
scalar OsgEarthNet.uav[27] utilizationCountManeuversMission 400
scalar OsgEarthNet.uav[27] utilizationCountManeuversMaintenance 86
scalar OsgEarthNet.uav[27] utilizationCountChargeState 43
scalar OsgEarthNet.uav[27] utilizationCountOverdrawnAfterMission 0
scalar OsgEarthNet.uav[27] utilizationCountIdleState 43
scalar OsgEarthNet.uav[27] utilizationFail 0
scalar OsgEarthNet.uav[27] simulationTime 259200
scalar OsgEarthNet.uav[28] utilizationSecMission 1373.200783884
scalar OsgEarthNet.uav[28] utilizationSecMaintenance 551.02098309519
scalar OsgEarthNet.uav[28] utilizationSecCharge 7030
scalar OsgEarthNet.uav[28] utilizationSecIdle 250245.77723302
scalar OsgEarthNet.uav[28] utilizationEnergyMission 6386.0875320435
scalar OsgEarthNet.uav[28] utilizationEnergyMaintenance 2266.3029098511
scalar OsgEarthNet.uav[28] utilizationEnergyCharge 8652.3869628906
scalar OsgEarthNet.uav[28] utilizationEnergyOverdrawMission 0
scalar OsgEarthNet.uav[28] utilizationEnergyOverdrawMaintenance 0
scalar OsgEarthNet.uav[28] utilizationCountMissions 2
scalar OsgEarthNet.uav[28] utilizationCountManeuversMission 20
scalar OsgEarthNet.uav[28] utilizationCountManeuversMaintenance 4
scalar OsgEarthNet.uav[28] utilizationCountChargeState 2
scalar OsgEarthNet.uav[28] utilizationCountOverdrawnAfterMission 0
scalar OsgEarthNet.uav[28] utilizationCountIdleState 3
scalar OsgEarthNet.uav[28] utilizationFail 0
scalar OsgEarthNet.uav[28] simulationTime 259200
scalar OsgEarthNet.uav[29] utilizationSecMission 28801.368286872
scalar OsgEarthNet.uav[29] utilizationSecMaintenance 17969.038606712
scalar OsgEarthNet.uav[29] utilizationSecCharge 172650
scalar OsgEarthNet.uav[29] utilizationSecIdle 39779.592106416
scalar OsgEarthNet.uav[29] utilizationEnergyMission 131956.66679382
scalar OsgEarthNet.uav[29] utilizationEnergyMaintenance 82832.079845428
scalar OsgEarthNet.uav[29] utilizationEnergyCharge 215763.76879883
scalar OsgEarthNet.uav[29] utilizationEnergyOverdrawMission 0
scalar OsgEarthNet.uav[29] utilizationEnergyOverdrawMaintenance 0
scalar OsgEarthNet.uav[29] utilizationCountMissions 48
scalar OsgEarthNet.uav[29] utilizationCountManeuversMission 473
scalar OsgEarthNet.uav[29] utilizationCountManeuversMaintenance 96
scalar OsgEarthNet.uav[29] utilizationCountChargeState 48
scalar OsgEarthNet.uav[29] utilizationCountOverdrawnAfterMission 0
scalar OsgEarthNet.uav[29] utilizationCountIdleState 49
scalar OsgEarthNet.uav[29] utilizationFail 0
scalar OsgEarthNet.uav[29] simulationTime 259200
scalar OsgEarthNet.uav[30] utilizationSecMission 645.47405733167
scalar OsgEarthNet.uav[30] utilizationSecMaintenance 393.86419216954
scalar OsgEarthNet.uav[30] utilizationSecCharge 3840
scalar OsgEarthNet.uav[30] utilizationSecIdle 254320.6607505
scalar OsgEarthNet.uav[30] utilizationEnergyMission 2832.1158599854
scalar OsgEarthNet.uav[30] utilizationEnergyMaintenance 1872.6303024292
scalar OsgEarthNet.uav[30] utilizationEnergyCharge 4872.5244140625
scalar OsgEarthNet.uav[30] utilizationEnergyOverdrawMission 0
scalar OsgEarthNet.uav[30] utilizationEnergyOverdrawMaintenance 0
scalar OsgEarthNet.uav[30] utilizationCountMissions 1
scalar OsgEarthNet.uav[30] utilizationCountManeuversMission 10
scalar OsgEarthNet.uav[30] utilizationCountManeuversMaintenance 2
scalar OsgEarthNet.uav[30] utilizationCountChargeState 1
scalar OsgEarthNet.uav[30] utilizationCountOverdrawnAfterMission 0
scalar OsgEarthNet.uav[30] utilizationCountIdleState 2
scalar OsgEarthNet.uav[30] utilizationFail 0
scalar OsgEarthNet.uav[30] simulationTime 259200
scalar OsgEarthNet.uav[31] utilizationSecMission 20757.000370405
scalar OsgEarthNet.uav[31] utilizationSecMaintenance 15104.502934888
scalar OsgEarthNet.uav[31] utilizationSecCharge 131400
scalar OsgEarthNet.uav[31] utilizationSecIdle 91938.495694707
scalar OsgEarthNet.uav[31] utilizationEnergyMission 95793.563415527
scalar OsgEarthNet.uav[31] utilizationEnergyMaintenance 69463.809341431
scalar OsgEarthNet.uav[31] utilizationEnergyCharge 164409.69165039
scalar OsgEarthNet.uav[31] utilizationEnergyOverdrawMission 0
scalar OsgEarthNet.uav[31] utilizationEnergyOverdrawMaintenance 0
scalar OsgEarthNet.uav[31] utilizationCountMissions 36
scalar OsgEarthNet.uav[31] utilizationCountManeuversMission 342
scalar OsgEarthNet.uav[31] utilizationCountManeuversMaintenance 72
scalar OsgEarthNet.uav[31] utilizationCountChargeState 36
scalar OsgEarthNet.uav[31] utilizationCountOverdrawnAfterMission 0
scalar OsgEarthNet.uav[31] utilizationCountIdleState 37
scalar OsgEarthNet.uav[31] utilizationFail 0
scalar OsgEarthNet.uav[31] simulationTime 259200
scalar OsgEarthNet.uav[32] utilizationSecMission 26341.746265719
scalar OsgEarthNet.uav[32] utilizationSecMaintenance 15905.786180163
scalar OsgEarthNet.uav[32] utilizationSecCharge 155631.0135954
scalar OsgEarthNet.uav[32] utilizationSecIdle 61321.452958717
scalar OsgEarthNet.uav[32] utilizationEnergyMission 121810.29568481
scalar OsgEarthNet.uav[32] utilizationEnergyMaintenance 73143.356452942
scalar OsgEarthNet.uav[32] utilizationEnergyCharge 194965.08447266
scalar OsgEarthNet.uav[32] utilizationEnergyOverdrawMission 0
scalar OsgEarthNet.uav[32] utilizationEnergyOverdrawMaintenance 0
scalar OsgEarthNet.uav[32] utilizationCountMissions 43
scalar OsgEarthNet.uav[32] utilizationCountManeuversMission 432
scalar OsgEarthNet.uav[32] utilizationCountManeuversMaintenance 86
scalar OsgEarthNet.uav[32] utilizationCountChargeState 43
scalar OsgEarthNet.uav[32] utilizationCountOverdrawnAfterMission 0
scalar OsgEarthNet.uav[32] utilizationCountIdleState 43
scalar OsgEarthNet.uav[32] utilizationFail 0
scalar OsgEarthNet.uav[32] simulationTime 259200
scalar OsgEarthNet.uav[33] utilizationSecMission 622.99605640573
scalar OsgEarthNet.uav[33] utilizationSecMaintenance 319.78771796751
scalar OsgEarthNet.uav[33] utilizationSecCharge 3540
scalar OsgEarthNet.uav[33] utilizationSecIdle 254717.21522563
scalar OsgEarthNet.uav[33] utilizationEnergyMission 2770.5763549805
scalar OsgEarthNet.uav[33] utilizationEnergyMaintenance 1588.0033073425
scalar OsgEarthNet.uav[33] utilizationEnergyCharge 4358.5786132812
scalar OsgEarthNet.uav[33] utilizationEnergyOverdrawMission 0
scalar OsgEarthNet.uav[33] utilizationEnergyOverdrawMaintenance 0
scalar OsgEarthNet.uav[33] utilizationCountMissions 1
scalar OsgEarthNet.uav[33] utilizationCountManeuversMission 9
scalar OsgEarthNet.uav[33] utilizationCountManeuversMaintenance 2
scalar OsgEarthNet.uav[33] utilizationCountChargeState 1
scalar OsgEarthNet.uav[33] utilizationCountOverdrawnAfterMission 0
scalar OsgEarthNet.uav[33] utilizationCountIdleState 2
scalar OsgEarthNet.uav[33] utilizationFail 0
scalar OsgEarthNet.uav[33] simulationTime 259200
scalar OsgEarthNet.uav[34] utilizationSecMission 1679.227578789
scalar OsgEarthNet.uav[34] utilizationSecMaintenance 1366.7619069129
scalar OsgEarthNet.uav[34] utilizationSecCharge 10910
scalar OsgEarthNet.uav[34] utilizationSecIdle 245244.0095143
scalar OsgEarthNet.uav[34] utilizationEnergyMission 7520.5382537842
scalar OsgEarthNet.uav[34] utilizationEnergyMaintenance 6070.5959205627
scalar OsgEarthNet.uav[34] utilizationEnergyCharge 13591.135742188
scalar OsgEarthNet.uav[34] utilizationEnergyOverdrawMission 0
scalar OsgEarthNet.uav[34] utilizationEnergyOverdrawMaintenance 0
scalar OsgEarthNet.uav[34] utilizationCountMissions 3
scalar OsgEarthNet.uav[34] utilizationCountManeuversMission 28
scalar OsgEarthNet.uav[34] utilizationCountManeuversMaintenance 6
scalar OsgEarthNet.uav[34] utilizationCountChargeState 3
scalar OsgEarthNet.uav[34] utilizationCountOverdrawnAfterMission 0
scalar OsgEarthNet.uav[34] utilizationCountIdleState 4
scalar OsgEarthNet.uav[34] utilizationFail 0
scalar OsgEarthNet.uav[34] simulationTime 259200
scalar OsgEarthNet.uav[35] utilizationSecMission 25550.314278331
scalar OsgEarthNet.uav[35] utilizationSecMaintenance 16411.767022698
scalar OsgEarthNet.uav[35] utilizationSecCharge 151368.49235168
scalar OsgEarthNet.uav[35] utilizationSecIdle 65869.42534729
scalar OsgEarthNet.uav[35] utilizationEnergyMission 117183.70566559
scalar OsgEarthNet.uav[35] utilizationEnergyMaintenance 74740.239860535
scalar OsgEarthNet.uav[35] utilizationEnergyCharge 190631.27539062
scalar OsgEarthNet.uav[35] utilizationEnergyOverdrawMission 0
scalar OsgEarthNet.uav[35] utilizationEnergyOverdrawMaintenance 0
scalar OsgEarthNet.uav[35] utilizationCountMissions 42
scalar OsgEarthNet.uav[35] utilizationCountManeuversMission 411
scalar OsgEarthNet.uav[35] utilizationCountManeuversMaintenance 84
scalar OsgEarthNet.uav[35] utilizationCountChargeState 42
scalar OsgEarthNet.uav[35] utilizationCountOverdrawnAfterMission 0
scalar OsgEarthNet.uav[35] utilizationCountIdleState 42
scalar OsgEarthNet.uav[35] utilizationFail 0
scalar OsgEarthNet.uav[35] simulationTime 259200
scalar OsgEarthNet.uav[36] utilizationSecMission 26305.321835015
scalar OsgEarthNet.uav[36] utilizationSecMaintenance 18030.54692692
scalar OsgEarthNet.uav[36] utilizationSecCharge 161179.48580755
scalar OsgEarthNet.uav[36] utilizationSecIdle 53684.644430518
scalar OsgEarthNet.uav[36] utilizationEnergyMission 121809.3269043
scalar OsgEarthNet.uav[36] utilizationEnergyMaintenance 85024.586799622
scalar OsgEarthNet.uav[36] utilizationEnergyCharge 202882.89782715
scalar OsgEarthNet.uav[36] utilizationEnergyOverdrawMission 0
scalar OsgEarthNet.uav[36] utilizationEnergyOverdrawMaintenance 0
scalar OsgEarthNet.uav[36] utilizationCountMissions 45
scalar OsgEarthNet.uav[36] utilizationCountManeuversMission 437
scalar OsgEarthNet.uav[36] utilizationCountManeuversMaintenance 90
scalar OsgEarthNet.uav[36] utilizationCountChargeState 45
scalar OsgEarthNet.uav[36] utilizationCountOverdrawnAfterMission 0
scalar OsgEarthNet.uav[36] utilizationCountIdleState 45
scalar OsgEarthNet.uav[36] utilizationFail 0
scalar OsgEarthNet.uav[36] simulationTime 259200
scalar OsgEarthNet.uav[37] utilizationSecMission 5917.5875891603
scalar OsgEarthNet.uav[37] utilizationSecMaintenance 5007.7819033961
scalar OsgEarthNet.uav[37] utilizationSecCharge 40520
scalar OsgEarthNet.uav[37] utilizationSecIdle 207754.62950744
scalar OsgEarthNet.uav[37] utilizationEnergyMission 27570.591930389
scalar OsgEarthNet.uav[37] utilizationEnergyMaintenance 23446.789890289
scalar OsgEarthNet.uav[37] utilizationEnergyCharge 50960.076660156
scalar OsgEarthNet.uav[37] utilizationEnergyOverdrawMission 0
scalar OsgEarthNet.uav[37] utilizationEnergyOverdrawMaintenance 0
scalar OsgEarthNet.uav[37] utilizationCountMissions 11
scalar OsgEarthNet.uav[37] utilizationCountManeuversMission 97
scalar OsgEarthNet.uav[37] utilizationCountManeuversMaintenance 22
scalar OsgEarthNet.uav[37] utilizationCountChargeState 11
scalar OsgEarthNet.uav[37] utilizationCountOverdrawnAfterMission 0
scalar OsgEarthNet.uav[37] utilizationCountIdleState 12
scalar OsgEarthNet.uav[37] utilizationFail 0
scalar OsgEarthNet.uav[37] simulationTime 259200
scalar OsgEarthNet.uav[38] utilizationSecMission 29576.970973438
scalar OsgEarthNet.uav[38] utilizationSecMaintenance 16358.758097777
scalar OsgEarthNet.uav[38] utilizationSecCharge 166049.77198761
scalar OsgEarthNet.uav[38] utilizationSecIdle 47214.497941176
scalar OsgEarthNet.uav[38] utilizationEnergyMission 136099.47129059
scalar OsgEarthNet.uav[38] utilizationEnergyMaintenance 75185.325855255
scalar OsgEarthNet.uav[38] utilizationEnergyCharge 209330.16625977
scalar OsgEarthNet.uav[38] utilizationEnergyOverdrawMission 0
scalar OsgEarthNet.uav[38] utilizationEnergyOverdrawMaintenance 0
scalar OsgEarthNet.uav[38] utilizationCountMissions 46
scalar OsgEarthNet.uav[38] utilizationCountManeuversMission 472
scalar OsgEarthNet.uav[38] utilizationCountManeuversMaintenance 92
scalar OsgEarthNet.uav[38] utilizationCountChargeState 46
scalar OsgEarthNet.uav[38] utilizationCountOverdrawnAfterMission 0
scalar OsgEarthNet.uav[38] utilizationCountIdleState 46
scalar OsgEarthNet.uav[38] utilizationFail 0
scalar OsgEarthNet.uav[38] simulationTime 259200
scalar OsgEarthNet.uav[39] utilizationSecMission 650.68693590098
scalar OsgEarthNet.uav[39] utilizationSecMaintenance 350.31285707965
scalar OsgEarthNet.uav[39] utilizationSecCharge 3660
scalar OsgEarthNet.uav[39] utilizationSecIdle 254538.99920702
scalar OsgEarthNet.uav[39] utilizationEnergyMission 2864.9639434814
scalar OsgEarthNet.uav[39] utilizationEnergyMaintenance 1690.7805099487
scalar OsgEarthNet.uav[39] utilizationEnergyCharge 4555.74609375
scalar OsgEarthNet.uav[39] utilizationEnergyOverdrawMission 0
scalar OsgEarthNet.uav[39] utilizationEnergyOverdrawMaintenance 0
scalar OsgEarthNet.uav[39] utilizationCountMissions 1
scalar OsgEarthNet.uav[39] utilizationCountManeuversMission 9
scalar OsgEarthNet.uav[39] utilizationCountManeuversMaintenance 2
scalar OsgEarthNet.uav[39] utilizationCountChargeState 1
scalar OsgEarthNet.uav[39] utilizationCountOverdrawnAfterMission 0
scalar OsgEarthNet.uav[39] utilizationCountIdleState 2
scalar OsgEarthNet.uav[39] utilizationFail 0
scalar OsgEarthNet.uav[39] simulationTime 259200
scalar OsgEarthNet.uav[40] utilizationSecMission 24236.877899156
scalar OsgEarthNet.uav[40] utilizationSecMaintenance 15709.728114251
scalar OsgEarthNet.uav[40] utilizationSecCharge 146646.87009949
scalar OsgEarthNet.uav[40] utilizationSecIdle 72606.522887101
scalar OsgEarthNet.uav[40] utilizationEnergyMission 111744.34047699
scalar OsgEarthNet.uav[40] utilizationEnergyMaintenance 74132.089988708
scalar OsgEarthNet.uav[40] utilizationEnergyCharge 185555.91992188
scalar OsgEarthNet.uav[40] utilizationEnergyOverdrawMission 0
scalar OsgEarthNet.uav[40] utilizationEnergyOverdrawMaintenance 0
scalar OsgEarthNet.uav[40] utilizationCountMissions 40
scalar OsgEarthNet.uav[40] utilizationCountManeuversMission 406
scalar OsgEarthNet.uav[40] utilizationCountManeuversMaintenance 80
scalar OsgEarthNet.uav[40] utilizationCountChargeState 40
scalar OsgEarthNet.uav[40] utilizationCountOverdrawnAfterMission 0
scalar OsgEarthNet.uav[40] utilizationCountIdleState 40
scalar OsgEarthNet.uav[40] utilizationFail 0
scalar OsgEarthNet.uav[40] simulationTime 259200
scalar OsgEarthNet.uav[41] utilizationSecMission 528.55000878666
scalar OsgEarthNet.uav[41] utilizationSecMaintenance 413.64453676047
scalar OsgEarthNet.uav[41] utilizationSecCharge 3490
scalar OsgEarthNet.uav[41] utilizationSecIdle 254767.80445445
scalar OsgEarthNet.uav[41] utilizationEnergyMission 2354.2847290039
scalar OsgEarthNet.uav[41] utilizationEnergyMaintenance 1895.3402938843
scalar OsgEarthNet.uav[41] utilizationEnergyCharge 4249.625
scalar OsgEarthNet.uav[41] utilizationEnergyOverdrawMission 0
scalar OsgEarthNet.uav[41] utilizationEnergyOverdrawMaintenance 0
scalar OsgEarthNet.uav[41] utilizationCountMissions 1
scalar OsgEarthNet.uav[41] utilizationCountManeuversMission 10
scalar OsgEarthNet.uav[41] utilizationCountManeuversMaintenance 2
scalar OsgEarthNet.uav[41] utilizationCountChargeState 1
scalar OsgEarthNet.uav[41] utilizationCountOverdrawnAfterMission 0
scalar OsgEarthNet.uav[41] utilizationCountIdleState 2
scalar OsgEarthNet.uav[41] utilizationFail 0
scalar OsgEarthNet.uav[41] simulationTime 259200
scalar OsgEarthNet.uav[42] utilizationSecMission 887.1741082606
scalar OsgEarthNet.uav[42] utilizationSecMaintenance 171.13387461676
scalar OsgEarthNet.uav[42] utilizationSecCharge 3880
scalar OsgEarthNet.uav[42] utilizationSecIdle 254261.69101712
scalar OsgEarthNet.uav[42] utilizationEnergyMission 3969.4498443603
scalar OsgEarthNet.uav[42] utilizationEnergyMaintenance 797.85842132568
scalar OsgEarthNet.uav[42] utilizationEnergyCharge 4898.2333984375
scalar OsgEarthNet.uav[42] utilizationEnergyOverdrawMission 0
scalar OsgEarthNet.uav[42] utilizationEnergyOverdrawMaintenance 0
scalar OsgEarthNet.uav[42] utilizationCountMissions 1
scalar OsgEarthNet.uav[42] utilizationCountManeuversMission 14
scalar OsgEarthNet.uav[42] utilizationCountManeuversMaintenance 2
scalar OsgEarthNet.uav[42] utilizationCountChargeState 1
scalar OsgEarthNet.uav[42] utilizationCountOverdrawnAfterMission 0
scalar OsgEarthNet.uav[42] utilizationCountIdleState 2
scalar OsgEarthNet.uav[42] utilizationFail 0
scalar OsgEarthNet.uav[42] simulationTime 259200
scalar OsgEarthNet.uav[43] utilizationSecMission 31111.684346204
scalar OsgEarthNet.uav[43] utilizationSecMaintenance 18387.581342401
scalar OsgEarthNet.uav[43] utilizationSecCharge 179538.73331139
scalar OsgEarthNet.uav[43] utilizationSecIdle 30162
scalar OsgEarthNet.uav[43] utilizationEnergyMission 144616.09231567
scalar OsgEarthNet.uav[43] utilizationEnergyMaintenance 85661.636859894
scalar OsgEarthNet.uav[43] utilizationEnergyCharge 225638.61999512
scalar OsgEarthNet.uav[43] utilizationEnergyOverdrawMission 0
scalar OsgEarthNet.uav[43] utilizationEnergyOverdrawMaintenance 0
scalar OsgEarthNet.uav[43] utilizationCountMissions 50
scalar OsgEarthNet.uav[43] utilizationCountManeuversMission 508
scalar OsgEarthNet.uav[43] utilizationCountManeuversMaintenance 99
scalar OsgEarthNet.uav[43] utilizationCountChargeState 50
scalar OsgEarthNet.uav[43] utilizationCountOverdrawnAfterMission 0
scalar OsgEarthNet.uav[43] utilizationCountIdleState 50
scalar OsgEarthNet.uav[43] utilizationFail 0
scalar OsgEarthNet.uav[43] simulationTime 259200
scalar OsgEarthNet.uav[44] utilizationSecMission 27744.162287316
scalar OsgEarthNet.uav[44] utilizationSecMaintenance 20296.714523634
scalar OsgEarthNet.uav[44] utilizationSecCharge 174622.44138116
scalar OsgEarthNet.uav[44] utilizationSecIdle 36536.680807888
scalar OsgEarthNet.uav[44] utilizationEnergyMission 128957.51876068
scalar OsgEarthNet.uav[44] utilizationEnergyMaintenance 94118.576488495
scalar OsgEarthNet.uav[44] utilizationEnergyCharge 218875.74075317
scalar OsgEarthNet.uav[44] utilizationEnergyOverdrawMission 0
scalar OsgEarthNet.uav[44] utilizationEnergyOverdrawMaintenance 0
scalar OsgEarthNet.uav[44] utilizationCountMissions 49
scalar OsgEarthNet.uav[44] utilizationCountManeuversMission 462
scalar OsgEarthNet.uav[44] utilizationCountManeuversMaintenance 98
scalar OsgEarthNet.uav[44] utilizationCountChargeState 49
scalar OsgEarthNet.uav[44] utilizationCountOverdrawnAfterMission 0
scalar OsgEarthNet.uav[44] utilizationCountIdleState 49
scalar OsgEarthNet.uav[44] utilizationFail 0
scalar OsgEarthNet.uav[44] simulationTime 259200
scalar OsgEarthNet.uav[45] utilizationSecMission 750.20472747826
scalar OsgEarthNet.uav[45] utilizationSecMaintenance 255.5651663541
scalar OsgEarthNet.uav[45] utilizationSecCharge 3620
scalar OsgEarthNet.uav[45] utilizationSecIdle 254574.22910617
scalar OsgEarthNet.uav[45] utilizationEnergyMission 3265.7974243164
scalar OsgEarthNet.uav[45] utilizationEnergyMaintenance 1188.7173271179
scalar OsgEarthNet.uav[45] utilizationEnergyCharge 4454.5205078125
scalar OsgEarthNet.uav[45] utilizationEnergyOverdrawMission 0
scalar OsgEarthNet.uav[45] utilizationEnergyOverdrawMaintenance 0
scalar OsgEarthNet.uav[45] utilizationCountMissions 1
scalar OsgEarthNet.uav[45] utilizationCountManeuversMission 11
scalar OsgEarthNet.uav[45] utilizationCountManeuversMaintenance 2
scalar OsgEarthNet.uav[45] utilizationCountChargeState 1
scalar OsgEarthNet.uav[45] utilizationCountOverdrawnAfterMission 0
scalar OsgEarthNet.uav[45] utilizationCountIdleState 2
scalar OsgEarthNet.uav[45] utilizationFail 0
scalar OsgEarthNet.uav[45] simulationTime 259200
scalar OsgEarthNet.uav[46] utilizationSecMission 313.66140879233
scalar OsgEarthNet.uav[46] utilizationSecMaintenance 473.03391658586
scalar OsgEarthNet.uav[46] utilizationSecCharge 3290
scalar OsgEarthNet.uav[46] utilizationSecIdle 255123.30367462
scalar OsgEarthNet.uav[46] utilizationEnergyMission 1630.2697143555
scalar OsgEarthNet.uav[46] utilizationEnergyMaintenance 2334.7184066772
scalar OsgEarthNet.uav[46] utilizationEnergyCharge 3964.9934082031
scalar OsgEarthNet.uav[46] utilizationEnergyOverdrawMission 0
scalar OsgEarthNet.uav[46] utilizationEnergyOverdrawMaintenance 0
scalar OsgEarthNet.uav[46] utilizationCountMissions 1
scalar OsgEarthNet.uav[46] utilizationCountManeuversMission 5
scalar OsgEarthNet.uav[46] utilizationCountManeuversMaintenance 2
scalar OsgEarthNet.uav[46] utilizationCountChargeState 1
scalar OsgEarthNet.uav[46] utilizationCountOverdrawnAfterMission 0
scalar OsgEarthNet.uav[46] utilizationCountIdleState 2
scalar OsgEarthNet.uav[46] utilizationFail 0
scalar OsgEarthNet.uav[46] simulationTime 259200
scalar OsgEarthNet.uav[47] utilizationSecMission 26285.303832071
scalar OsgEarthNet.uav[47] utilizationSecMaintenance 20973.422098868
scalar OsgEarthNet.uav[47] utilizationSecCharge 170680.11359518
scalar OsgEarthNet.uav[47] utilizationSecIdle 41261.159473879
scalar OsgEarthNet.uav[47] utilizationEnergyMission 120779.59806061
scalar OsgEarthNet.uav[47] utilizationEnergyMaintenance 96716.545902252
scalar OsgEarthNet.uav[47] utilizationEnergyCharge 215093.96679688
scalar OsgEarthNet.uav[47] utilizationEnergyOverdrawMission 0
scalar OsgEarthNet.uav[47] utilizationEnergyOverdrawMaintenance 0
scalar OsgEarthNet.uav[47] utilizationCountMissions 47
scalar OsgEarthNet.uav[47] utilizationCountManeuversMission 418
scalar OsgEarthNet.uav[47] utilizationCountManeuversMaintenance 94
scalar OsgEarthNet.uav[47] utilizationCountChargeState 47
scalar OsgEarthNet.uav[47] utilizationCountOverdrawnAfterMission 0
scalar OsgEarthNet.uav[47] utilizationCountIdleState 47
scalar OsgEarthNet.uav[47] utilizationFail 0
scalar OsgEarthNet.uav[47] simulationTime 259200
scalar OsgEarthNet.uav[48] utilizationSecMission 2450.9436692088
scalar OsgEarthNet.uav[48] utilizationSecMaintenance 1759.5969827018
scalar OsgEarthNet.uav[48] utilizationSecCharge 14980
scalar OsgEarthNet.uav[48] utilizationSecIdle 240009.45834809
scalar OsgEarthNet.uav[48] utilizationEnergyMission 11593.468559265
scalar OsgEarthNet.uav[48] utilizationEnergyMaintenance 8199.7106670861
scalar OsgEarthNet.uav[48] utilizationEnergyCharge 18866.8203125
scalar OsgEarthNet.uav[48] utilizationEnergyOverdrawMission 0
scalar OsgEarthNet.uav[48] utilizationEnergyOverdrawMaintenance 0
scalar OsgEarthNet.uav[48] utilizationCountMissions 4
scalar OsgEarthNet.uav[48] utilizationCountManeuversMission 44
scalar OsgEarthNet.uav[48] utilizationCountManeuversMaintenance 9
scalar OsgEarthNet.uav[48] utilizationCountChargeState 4
scalar OsgEarthNet.uav[48] utilizationCountOverdrawnAfterMission 0
scalar OsgEarthNet.uav[48] utilizationCountIdleState 5
scalar OsgEarthNet.uav[48] utilizationFail 0
scalar OsgEarthNet.uav[48] simulationTime 259200
scalar OsgEarthNet.uav[49] utilizationSecMission 24998.188615042
scalar OsgEarthNet.uav[49] utilizationSecMaintenance 20177.540030591
scalar OsgEarthNet.uav[49] utilizationSecCharge 164700.87822824
scalar OsgEarthNet.uav[49] utilizationSecIdle 49323.392126128
scalar OsgEarthNet.uav[49] utilizationEnergyMission 115179.35442352
scalar OsgEarthNet.uav[49] utilizationEnergyMaintenance 94179.820648193
scalar OsgEarthNet.uav[49] utilizationEnergyCharge 206763.34057617
scalar OsgEarthNet.uav[49] utilizationEnergyOverdrawMission 0
scalar OsgEarthNet.uav[49] utilizationEnergyOverdrawMaintenance 0
scalar OsgEarthNet.uav[49] utilizationCountMissions 46
scalar OsgEarthNet.uav[49] utilizationCountManeuversMission 403
scalar OsgEarthNet.uav[49] utilizationCountManeuversMaintenance 92
scalar OsgEarthNet.uav[49] utilizationCountChargeState 46
scalar OsgEarthNet.uav[49] utilizationCountOverdrawnAfterMission 0
scalar OsgEarthNet.uav[49] utilizationCountIdleState 46
scalar OsgEarthNet.uav[49] utilizationFail 0
scalar OsgEarthNet.uav[49] simulationTime 259200
scalar OsgEarthNet.uav[50] utilizationSecMission 27012.653983005
scalar OsgEarthNet.uav[50] utilizationSecMaintenance 18229.977453161
scalar OsgEarthNet.uav[50] utilizationSecCharge 166024.6015899
scalar OsgEarthNet.uav[50] utilizationSecIdle 47932.765973934
scalar OsgEarthNet.uav[50] utilizationEnergyMission 125462.47940826
scalar OsgEarthNet.uav[50] utilizationEnergyMaintenance 84275.344120026
scalar OsgEarthNet.uav[50] utilizationEnergyCharge 209246.68261719
scalar OsgEarthNet.uav[50] utilizationEnergyOverdrawMission 0
scalar OsgEarthNet.uav[50] utilizationEnergyOverdrawMaintenance 0
scalar OsgEarthNet.uav[50] utilizationCountMissions 46
scalar OsgEarthNet.uav[50] utilizationCountManeuversMission 442
scalar OsgEarthNet.uav[50] utilizationCountManeuversMaintenance 92
scalar OsgEarthNet.uav[50] utilizationCountChargeState 46
scalar OsgEarthNet.uav[50] utilizationCountOverdrawnAfterMission 0
scalar OsgEarthNet.uav[50] utilizationCountIdleState 46
scalar OsgEarthNet.uav[50] utilizationFail 0
scalar OsgEarthNet.uav[50] simulationTime 259200
scalar OsgEarthNet.uav[51] utilizationSecMission 10591.093503339
scalar OsgEarthNet.uav[51] utilizationSecMaintenance 7324.3326168657
scalar OsgEarthNet.uav[51] utilizationSecCharge 66550
scalar OsgEarthNet.uav[51] utilizationSecIdle 174734.57287979
scalar OsgEarthNet.uav[51] utilizationEnergyMission 48712.309661865
scalar OsgEarthNet.uav[51] utilizationEnergyMaintenance 35032.232105255
scalar OsgEarthNet.uav[51] utilizationEnergyCharge 83890.330078125
scalar OsgEarthNet.uav[51] utilizationEnergyOverdrawMission 0
scalar OsgEarthNet.uav[51] utilizationEnergyOverdrawMaintenance 0
scalar OsgEarthNet.uav[51] utilizationCountMissions 18
scalar OsgEarthNet.uav[51] utilizationCountManeuversMission 180
scalar OsgEarthNet.uav[51] utilizationCountManeuversMaintenance 36
scalar OsgEarthNet.uav[51] utilizationCountChargeState 18
scalar OsgEarthNet.uav[51] utilizationCountOverdrawnAfterMission 0
scalar OsgEarthNet.uav[51] utilizationCountIdleState 19
scalar OsgEarthNet.uav[51] utilizationFail 0
scalar OsgEarthNet.uav[51] simulationTime 259200
scalar OsgEarthNet.uav[52] utilizationSecMission 1357.2714760355
scalar OsgEarthNet.uav[52] utilizationSecMaintenance 634.36737825477
scalar OsgEarthNet.uav[52] utilizationSecCharge 7160
scalar OsgEarthNet.uav[52] utilizationSecIdle 250048.36014571
scalar OsgEarthNet.uav[52] utilizationEnergyMission 5989.6579360962
scalar OsgEarthNet.uav[52] utilizationEnergyMaintenance 2876.6709327698
scalar OsgEarthNet.uav[52] utilizationEnergyCharge 8866.3349609375
scalar OsgEarthNet.uav[52] utilizationEnergyOverdrawMission 0
scalar OsgEarthNet.uav[52] utilizationEnergyOverdrawMaintenance 0
scalar OsgEarthNet.uav[52] utilizationCountMissions 2
scalar OsgEarthNet.uav[52] utilizationCountManeuversMission 23
scalar OsgEarthNet.uav[52] utilizationCountManeuversMaintenance 4
scalar OsgEarthNet.uav[52] utilizationCountChargeState 2
scalar OsgEarthNet.uav[52] utilizationCountOverdrawnAfterMission 0
scalar OsgEarthNet.uav[52] utilizationCountIdleState 3
scalar OsgEarthNet.uav[52] utilizationFail 0
scalar OsgEarthNet.uav[52] simulationTime 259200
scalar OsgEarthNet.uav[53] utilizationSecMission 2976.1969745119
scalar OsgEarthNet.uav[53] utilizationSecMaintenance 1150.5998148988
scalar OsgEarthNet.uav[53] utilizationSecCharge 14970
scalar OsgEarthNet.uav[53] utilizationSecIdle 240103.20221059
scalar OsgEarthNet.uav[53] utilizationEnergyMission 13325.363464355
scalar OsgEarthNet.uav[53] utilizationEnergyMaintenance 5511.7508811951
scalar OsgEarthNet.uav[53] utilizationEnergyCharge 18959.113769531
scalar OsgEarthNet.uav[53] utilizationEnergyOverdrawMission 0
scalar OsgEarthNet.uav[53] utilizationEnergyOverdrawMaintenance 0
scalar OsgEarthNet.uav[53] utilizationCountMissions 4
scalar OsgEarthNet.uav[53] utilizationCountManeuversMission 47
scalar OsgEarthNet.uav[53] utilizationCountManeuversMaintenance 8
scalar OsgEarthNet.uav[53] utilizationCountChargeState 4
scalar OsgEarthNet.uav[53] utilizationCountOverdrawnAfterMission 0
scalar OsgEarthNet.uav[53] utilizationCountIdleState 5
scalar OsgEarthNet.uav[53] utilizationFail 0
scalar OsgEarthNet.uav[53] simulationTime 259200
scalar OsgEarthNet.uav[54] utilizationSecMission 29414.649795189
scalar OsgEarthNet.uav[54] utilizationSecMaintenance 18623.391159258
scalar OsgEarthNet.uav[54] utilizationSecCharge 174477.34615604
scalar OsgEarthNet.uav[54] utilizationSecIdle 36684.611889516
scalar OsgEarthNet.uav[54] utilizationEnergyMission 135695.61355591
scalar OsgEarthNet.uav[54] utilizationEnergyMaintenance 85902.434398651
scalar OsgEarthNet.uav[54] utilizationEnergyCharge 220501.80395508
scalar OsgEarthNet.uav[54] utilizationEnergyOverdrawMission 0
scalar OsgEarthNet.uav[54] utilizationEnergyOverdrawMaintenance 0
scalar OsgEarthNet.uav[54] utilizationCountMissions 48
scalar OsgEarthNet.uav[54] utilizationCountManeuversMission 488
scalar OsgEarthNet.uav[54] utilizationCountManeuversMaintenance 96
scalar OsgEarthNet.uav[54] utilizationCountChargeState 48
scalar OsgEarthNet.uav[54] utilizationCountOverdrawnAfterMission 0
scalar OsgEarthNet.uav[54] utilizationCountIdleState 48
scalar OsgEarthNet.uav[54] utilizationFail 0
scalar OsgEarthNet.uav[54] simulationTime 259200
scalar OsgEarthNet.uav[55] utilizationSecMission 19469.22136149
scalar OsgEarthNet.uav[55] utilizationSecMaintenance 14178.830639638
scalar OsgEarthNet.uav[55] utilizationSecCharge 123346.49134547
scalar OsgEarthNet.uav[55] utilizationSecIdle 102205.4556534
scalar OsgEarthNet.uav[55] utilizationEnergyMission 90579.568916321
scalar OsgEarthNet.uav[55] utilizationEnergyMaintenance 65208.783081055
scalar OsgEarthNet.uav[55] utilizationEnergyCharge 154125.29541016
scalar OsgEarthNet.uav[55] utilizationEnergyOverdrawMission 0
scalar OsgEarthNet.uav[55] utilizationEnergyOverdrawMaintenance 0
scalar OsgEarthNet.uav[55] utilizationCountMissions 35
scalar OsgEarthNet.uav[55] utilizationCountManeuversMission 319
scalar OsgEarthNet.uav[55] utilizationCountManeuversMaintenance 70
scalar OsgEarthNet.uav[55] utilizationCountChargeState 35
scalar OsgEarthNet.uav[55] utilizationCountOverdrawnAfterMission 0
scalar OsgEarthNet.uav[55] utilizationCountIdleState 35
scalar OsgEarthNet.uav[55] utilizationFail 0
scalar OsgEarthNet.uav[55] simulationTime 259200
scalar OsgEarthNet.uav[56] utilizationSecMission 545.05972348896
scalar OsgEarthNet.uav[56] utilizationSecMaintenance 427.36308650536
scalar OsgEarthNet.uav[56] utilizationSecCharge 3710
scalar OsgEarthNet.uav[56] utilizationSecIdle 254517.57619001
scalar OsgEarthNet.uav[56] utilizationEnergyMission 2545.5348815918
scalar OsgEarthNet.uav[56] utilizationEnergyMaintenance 2149.8686141968
scalar OsgEarthNet.uav[56] utilizationEnergyCharge 4649.3623046875
scalar OsgEarthNet.uav[56] utilizationEnergyOverdrawMission 0
scalar OsgEarthNet.uav[56] utilizationEnergyOverdrawMaintenance 0
scalar OsgEarthNet.uav[56] utilizationCountMissions 1
scalar OsgEarthNet.uav[56] utilizationCountManeuversMission 9
scalar OsgEarthNet.uav[56] utilizationCountManeuversMaintenance 2
scalar OsgEarthNet.uav[56] utilizationCountChargeState 1
scalar OsgEarthNet.uav[56] utilizationCountOverdrawnAfterMission 0
scalar OsgEarthNet.uav[56] utilizationCountIdleState 2
scalar OsgEarthNet.uav[56] utilizationFail 0
scalar OsgEarthNet.uav[56] simulationTime 259200
scalar OsgEarthNet.uav[57] utilizationSecMission 694.00169469977
scalar OsgEarthNet.uav[57] utilizationSecMaintenance 349.76607937241
scalar OsgEarthNet.uav[57] utilizationSecCharge 3780
scalar OsgEarthNet.uav[57] utilizationSecIdle 254376.23122593
scalar OsgEarthNet.uav[57] utilizationEnergyMission 3249.5836181641
scalar OsgEarthNet.uav[57] utilizationEnergyMaintenance 1550.6531486511
scalar OsgEarthNet.uav[57] utilizationEnergyCharge 4800.236328125
scalar OsgEarthNet.uav[57] utilizationEnergyOverdrawMission 0
scalar OsgEarthNet.uav[57] utilizationEnergyOverdrawMaintenance 0
scalar OsgEarthNet.uav[57] utilizationCountMissions 1
scalar OsgEarthNet.uav[57] utilizationCountManeuversMission 13
scalar OsgEarthNet.uav[57] utilizationCountManeuversMaintenance 2
scalar OsgEarthNet.uav[57] utilizationCountChargeState 1
scalar OsgEarthNet.uav[57] utilizationCountOverdrawnAfterMission 0
scalar OsgEarthNet.uav[57] utilizationCountIdleState 2
scalar OsgEarthNet.uav[57] utilizationFail 0
scalar OsgEarthNet.uav[57] simulationTime 259200
scalar OsgEarthNet.uav[58] utilizationSecMission 1519.6161916328
scalar OsgEarthNet.uav[58] utilizationSecMaintenance 584.14330352016
scalar OsgEarthNet.uav[58] utilizationSecCharge 7420
scalar OsgEarthNet.uav[58] utilizationSecIdle 249676.23950485
scalar OsgEarthNet.uav[58] utilizationEnergyMission 6670.468788147
scalar OsgEarthNet.uav[58] utilizationEnergyMaintenance 2634.2270545959
scalar OsgEarthNet.uav[58] utilizationEnergyCharge 9299.5390625
scalar OsgEarthNet.uav[58] utilizationEnergyOverdrawMission 0
scalar OsgEarthNet.uav[58] utilizationEnergyOverdrawMaintenance 0
scalar OsgEarthNet.uav[58] utilizationCountMissions 2
scalar OsgEarthNet.uav[58] utilizationCountManeuversMission 26
scalar OsgEarthNet.uav[58] utilizationCountManeuversMaintenance 4
scalar OsgEarthNet.uav[58] utilizationCountChargeState 2
scalar OsgEarthNet.uav[58] utilizationCountOverdrawnAfterMission 0
scalar OsgEarthNet.uav[58] utilizationCountIdleState 3
scalar OsgEarthNet.uav[58] utilizationFail 0
scalar OsgEarthNet.uav[58] simulationTime 259200
scalar OsgEarthNet.uav[59] utilizationSecMission 12396.753171651
scalar OsgEarthNet.uav[59] utilizationSecMaintenance 9803.96434973
scalar OsgEarthNet.uav[59] utilizationSecCharge 82820
scalar OsgEarthNet.uav[59] utilizationSecIdle 154179.28147862
scalar OsgEarthNet.uav[59] utilizationEnergyMission 57921.355316162
scalar OsgEarthNet.uav[59] utilizationEnergyMaintenance 45564.196884155
scalar OsgEarthNet.uav[59] utilizationEnergyCharge 103331.03271484
scalar OsgEarthNet.uav[59] utilizationEnergyOverdrawMission 0
scalar OsgEarthNet.uav[59] utilizationEnergyOverdrawMaintenance 0
scalar OsgEarthNet.uav[59] utilizationCountMissions 23
scalar OsgEarthNet.uav[59] utilizationCountManeuversMission 211
scalar OsgEarthNet.uav[59] utilizationCountManeuversMaintenance 46
scalar OsgEarthNet.uav[59] utilizationCountChargeState 23
scalar OsgEarthNet.uav[59] utilizationCountOverdrawnAfterMission 0
scalar OsgEarthNet.uav[59] utilizationCountIdleState 24
scalar OsgEarthNet.uav[59] utilizationFail 0
scalar OsgEarthNet.uav[59] simulationTime 259200
scalar OsgEarthNet.uav[60] utilizationSecMission 1419.7139189059
scalar OsgEarthNet.uav[60] utilizationSecMaintenance 1552.1491149027
scalar OsgEarthNet.uav[60] utilizationSecCharge 10670
scalar OsgEarthNet.uav[60] utilizationSecIdle 245558.13596619
scalar OsgEarthNet.uav[60] utilizationEnergyMission 6136.279876709
scalar OsgEarthNet.uav[60] utilizationEnergyMaintenance 7134.9757843018
scalar OsgEarthNet.uav[60] utilizationEnergyCharge 13271.262207031
scalar OsgEarthNet.uav[60] utilizationEnergyOverdrawMission 0
scalar OsgEarthNet.uav[60] utilizationEnergyOverdrawMaintenance 0
scalar OsgEarthNet.uav[60] utilizationCountMissions 3
scalar OsgEarthNet.uav[60] utilizationCountManeuversMission 26
scalar OsgEarthNet.uav[60] utilizationCountManeuversMaintenance 6
scalar OsgEarthNet.uav[60] utilizationCountChargeState 3
scalar OsgEarthNet.uav[60] utilizationCountOverdrawnAfterMission 0
scalar OsgEarthNet.uav[60] utilizationCountIdleState 4
scalar OsgEarthNet.uav[60] utilizationFail 0
scalar OsgEarthNet.uav[60] simulationTime 259200
scalar OsgEarthNet.uav[61] utilizationSecMission 27946.210522048
scalar OsgEarthNet.uav[61] utilizationSecMaintenance 13497.001113004
scalar OsgEarthNet.uav[61] utilizationSecCharge 151124.70014213
scalar OsgEarthNet.uav[61] utilizationSecIdle 66632.087222815
scalar OsgEarthNet.uav[61] utilizationEnergyMission 129524.84207916
scalar OsgEarthNet.uav[61] utilizationEnergyMaintenance 62384.668037415
scalar OsgEarthNet.uav[61] utilizationEnergyCharge 190346.68164062
scalar OsgEarthNet.uav[61] utilizationEnergyOverdrawMission 0
scalar OsgEarthNet.uav[61] utilizationEnergyOverdrawMaintenance 0
scalar OsgEarthNet.uav[61] utilizationCountMissions 42
scalar OsgEarthNet.uav[61] utilizationCountManeuversMission 449
scalar OsgEarthNet.uav[61] utilizationCountManeuversMaintenance 84
scalar OsgEarthNet.uav[61] utilizationCountChargeState 42
scalar OsgEarthNet.uav[61] utilizationCountOverdrawnAfterMission 0
scalar OsgEarthNet.uav[61] utilizationCountIdleState 42
scalar OsgEarthNet.uav[61] utilizationFail 0
scalar OsgEarthNet.uav[61] simulationTime 259200
scalar OsgEarthNet.uav[62] utilizationSecMission 3152.6160821647
scalar OsgEarthNet.uav[62] utilizationSecMaintenance 2570.6677025855
scalar OsgEarthNet.uav[62] utilizationSecCharge 21360
scalar OsgEarthNet.uav[62] utilizationSecIdle 232116.71521525
scalar OsgEarthNet.uav[62] utilizationEnergyMission 14787.32333374
scalar OsgEarthNet.uav[62] utilizationEnergyMaintenance 11814.965595245
scalar OsgEarthNet.uav[62] utilizationEnergyCharge 26525.111816406
scalar OsgEarthNet.uav[62] utilizationEnergyOverdrawMission 0
scalar OsgEarthNet.uav[62] utilizationEnergyOverdrawMaintenance 0
scalar OsgEarthNet.uav[62] utilizationCountMissions 6
scalar OsgEarthNet.uav[62] utilizationCountManeuversMission 51
scalar OsgEarthNet.uav[62] utilizationCountManeuversMaintenance 12
scalar OsgEarthNet.uav[62] utilizationCountChargeState 6
scalar OsgEarthNet.uav[62] utilizationCountOverdrawnAfterMission 0
scalar OsgEarthNet.uav[62] utilizationCountIdleState 7
scalar OsgEarthNet.uav[62] utilizationFail 0
scalar OsgEarthNet.uav[62] simulationTime 259200
scalar OsgEarthNet.uav[63] utilizationSecMission 7516.3946088767
scalar OsgEarthNet.uav[63] utilizationSecMaintenance 5677.8500703106
scalar OsgEarthNet.uav[63] utilizationSecCharge 48290
scalar OsgEarthNet.uav[63] utilizationSecIdle 197715.75432081
scalar OsgEarthNet.uav[63] utilizationEnergyMission 34643.058677673
scalar OsgEarthNet.uav[63] utilizationEnergyMaintenance 26489.106655121
scalar OsgEarthNet.uav[63] utilizationEnergyCharge 60931.338867188
scalar OsgEarthNet.uav[63] utilizationEnergyOverdrawMission 0
scalar OsgEarthNet.uav[63] utilizationEnergyOverdrawMaintenance 0
scalar OsgEarthNet.uav[63] utilizationCountMissions 13
scalar OsgEarthNet.uav[63] utilizationCountManeuversMission 122
scalar OsgEarthNet.uav[63] utilizationCountManeuversMaintenance 26
scalar OsgEarthNet.uav[63] utilizationCountChargeState 13
scalar OsgEarthNet.uav[63] utilizationCountOverdrawnAfterMission 0
scalar OsgEarthNet.uav[63] utilizationCountIdleState 14
scalar OsgEarthNet.uav[63] utilizationFail 0
scalar OsgEarthNet.uav[63] simulationTime 259200
scalar OsgEarthNet.uav[64] utilizationSecMission 11722.014424934
scalar OsgEarthNet.uav[64] utilizationSecMaintenance 9961.281312105
scalar OsgEarthNet.uav[64] utilizationSecCharge 79190
scalar OsgEarthNet.uav[64] utilizationSecIdle 158326.70326296
scalar OsgEarthNet.uav[64] utilizationEnergyMission 52543.955307007
scalar OsgEarthNet.uav[64] utilizationEnergyMaintenance 46253.534324646
scalar OsgEarthNet.uav[64] utilizationEnergyCharge 98787.034179688
scalar OsgEarthNet.uav[64] utilizationEnergyOverdrawMission 0
scalar OsgEarthNet.uav[64] utilizationEnergyOverdrawMaintenance 0
scalar OsgEarthNet.uav[64] utilizationCountMissions 22
scalar OsgEarthNet.uav[64] utilizationCountManeuversMission 191
scalar OsgEarthNet.uav[64] utilizationCountManeuversMaintenance 44
scalar OsgEarthNet.uav[64] utilizationCountChargeState 22
scalar OsgEarthNet.uav[64] utilizationCountOverdrawnAfterMission 0
scalar OsgEarthNet.uav[64] utilizationCountIdleState 23
scalar OsgEarthNet.uav[64] utilizationFail 0
scalar OsgEarthNet.uav[64] simulationTime 259200
scalar OsgEarthNet.uav[65] utilizationSecMission 14721.230925488
scalar OsgEarthNet.uav[65] utilizationSecMaintenance 11693.900693143
scalar OsgEarthNet.uav[65] utilizationSecCharge 98460
scalar OsgEarthNet.uav[65] utilizationSecIdle 134324.86738137
scalar OsgEarthNet.uav[65] utilizationEnergyMission 68024.815925598
scalar OsgEarthNet.uav[65] utilizationEnergyMaintenance 54724.726383209
scalar OsgEarthNet.uav[65] utilizationEnergyCharge 123310.23046875
scalar OsgEarthNet.uav[65] utilizationEnergyOverdrawMission 0
scalar OsgEarthNet.uav[65] utilizationEnergyOverdrawMaintenance 0
scalar OsgEarthNet.uav[65] utilizationCountMissions 27
scalar OsgEarthNet.uav[65] utilizationCountManeuversMission 239
scalar OsgEarthNet.uav[65] utilizationCountManeuversMaintenance 54
scalar OsgEarthNet.uav[65] utilizationCountChargeState 27
scalar OsgEarthNet.uav[65] utilizationCountOverdrawnAfterMission 0
scalar OsgEarthNet.uav[65] utilizationCountIdleState 28
scalar OsgEarthNet.uav[65] utilizationFail 0
scalar OsgEarthNet.uav[65] simulationTime 259200
scalar OsgEarthNet.uav[66] utilizationSecMission 28183.238362572
scalar OsgEarthNet.uav[66] utilizationSecMaintenance 19663.80332493
scalar OsgEarthNet.uav[66] utilizationSecCharge 175820.81749076
scalar OsgEarthNet.uav[66] utilizationSecIdle 35532.139821739
scalar OsgEarthNet.uav[66] utilizationEnergyMission 131450.04362488
scalar OsgEarthNet.uav[66] utilizationEnergyMaintenance 90878.542705536
scalar OsgEarthNet.uav[66] utilizationEnergyCharge 221929.02709961
scalar OsgEarthNet.uav[66] utilizationEnergyOverdrawMission 0
scalar OsgEarthNet.uav[66] utilizationEnergyOverdrawMaintenance 0
scalar OsgEarthNet.uav[66] utilizationCountMissions 48
scalar OsgEarthNet.uav[66] utilizationCountManeuversMission 468
scalar OsgEarthNet.uav[66] utilizationCountManeuversMaintenance 96
scalar OsgEarthNet.uav[66] utilizationCountChargeState 48
scalar OsgEarthNet.uav[66] utilizationCountOverdrawnAfterMission 0
scalar OsgEarthNet.uav[66] utilizationCountIdleState 46
scalar OsgEarthNet.uav[66] utilizationFail 0
scalar OsgEarthNet.uav[66] simulationTime 259200
scalar OsgEarthNet.uav[67] utilizationSecMission 19066.767036078
scalar OsgEarthNet.uav[67] utilizationSecMaintenance 14309.963049073
scalar OsgEarthNet.uav[67] utilizationSecCharge 123360
scalar OsgEarthNet.uav[67] utilizationSecIdle 102463.26891485
scalar OsgEarthNet.uav[67] utilizationEnergyMission 88022.244758606
scalar OsgEarthNet.uav[67] utilizationEnergyMaintenance 66474.608020782
scalar OsgEarthNet.uav[67] utilizationEnergyCharge 154567.3034668
scalar OsgEarthNet.uav[67] utilizationEnergyOverdrawMission 0
scalar OsgEarthNet.uav[67] utilizationEnergyOverdrawMaintenance 0
scalar OsgEarthNet.uav[67] utilizationCountMissions 34
scalar OsgEarthNet.uav[67] utilizationCountManeuversMission 314
scalar OsgEarthNet.uav[67] utilizationCountManeuversMaintenance 68
scalar OsgEarthNet.uav[67] utilizationCountChargeState 34
scalar OsgEarthNet.uav[67] utilizationCountOverdrawnAfterMission 0
scalar OsgEarthNet.uav[67] utilizationCountIdleState 34
scalar OsgEarthNet.uav[67] utilizationFail 0
scalar OsgEarthNet.uav[67] simulationTime 259200
scalar OsgEarthNet.uav[68] utilizationSecMission 21045.142622397
scalar OsgEarthNet.uav[68] utilizationSecMaintenance 14068.585651208
scalar OsgEarthNet.uav[68] utilizationSecCharge 129540
scalar OsgEarthNet.uav[68] utilizationSecIdle 94546.270726395
scalar OsgEarthNet.uav[68] utilizationEnergyMission 96711.477745056
scalar OsgEarthNet.uav[68] utilizationEnergyMaintenance 65238.971851349
scalar OsgEarthNet.uav[68] utilizationEnergyCharge 161862.08398438
scalar OsgEarthNet.uav[68] utilizationEnergyOverdrawMission 0
scalar OsgEarthNet.uav[68] utilizationEnergyOverdrawMaintenance 0
scalar OsgEarthNet.uav[68] utilizationCountMissions 36
scalar OsgEarthNet.uav[68] utilizationCountManeuversMission 334
scalar OsgEarthNet.uav[68] utilizationCountManeuversMaintenance 72
scalar OsgEarthNet.uav[68] utilizationCountChargeState 36
scalar OsgEarthNet.uav[68] utilizationCountOverdrawnAfterMission 0
scalar OsgEarthNet.uav[68] utilizationCountIdleState 35
scalar OsgEarthNet.uav[68] utilizationFail 0
scalar OsgEarthNet.uav[68] simulationTime 259200
scalar OsgEarthNet.uav[69] utilizationSecMission 28273.175933833
scalar OsgEarthNet.uav[69] utilizationSecMaintenance 20464.823066167
scalar OsgEarthNet.uav[69] utilizationSecCharge 179080
scalar OsgEarthNet.uav[69] utilizationSecIdle 31382
scalar OsgEarthNet.uav[69] utilizationEnergyMission 130562.59753799
scalar OsgEarthNet.uav[69] utilizationEnergyMaintenance 95113.816335404
scalar OsgEarthNet.uav[69] utilizationEnergyCharge 225115.24121094
scalar OsgEarthNet.uav[69] utilizationEnergyOverdrawMission 0
scalar OsgEarthNet.uav[69] utilizationEnergyOverdrawMaintenance 0
scalar OsgEarthNet.uav[69] utilizationCountMissions 49
scalar OsgEarthNet.uav[69] utilizationCountManeuversMission 456
scalar OsgEarthNet.uav[69] utilizationCountManeuversMaintenance 98
scalar OsgEarthNet.uav[69] utilizationCountChargeState 49
scalar OsgEarthNet.uav[69] utilizationCountOverdrawnAfterMission 0
scalar OsgEarthNet.uav[69] utilizationCountIdleState 48
scalar OsgEarthNet.uav[69] utilizationFail 0
scalar OsgEarthNet.uav[69] simulationTime 259200
scalar OsgEarthNet.uav[70] utilizationSecMission 26736.044419746
scalar OsgEarthNet.uav[70] utilizationSecMaintenance 16606.805540958
scalar OsgEarthNet.uav[70] utilizationSecCharge 156380
scalar OsgEarthNet.uav[70] utilizationSecIdle 59477.149039296
scalar OsgEarthNet.uav[70] utilizationEnergyMission 123127.81605068
scalar OsgEarthNet.uav[70] utilizationEnergyMaintenance 76467.362228394
scalar OsgEarthNet.uav[70] utilizationEnergyCharge 196273.87207031
scalar OsgEarthNet.uav[70] utilizationEnergyOverdrawMission 0
scalar OsgEarthNet.uav[70] utilizationEnergyOverdrawMaintenance 0
scalar OsgEarthNet.uav[70] utilizationCountMissions 43
scalar OsgEarthNet.uav[70] utilizationCountManeuversMission 428
scalar OsgEarthNet.uav[70] utilizationCountManeuversMaintenance 87
scalar OsgEarthNet.uav[70] utilizationCountChargeState 43
scalar OsgEarthNet.uav[70] utilizationCountOverdrawnAfterMission 0
scalar OsgEarthNet.uav[70] utilizationCountIdleState 42
scalar OsgEarthNet.uav[70] utilizationFail 0
scalar OsgEarthNet.uav[70] simulationTime 259200
scalar OsgEarthNet.uav[71] utilizationSecMission 27040.953180402
scalar OsgEarthNet.uav[71] utilizationSecMaintenance 19206.725576391
scalar OsgEarthNet.uav[71] utilizationSecCharge 168006.89552384
scalar OsgEarthNet.uav[71] utilizationSecIdle 44945.424719371
scalar OsgEarthNet.uav[71] utilizationEnergyMission 126547.67432404
scalar OsgEarthNet.uav[71] utilizationEnergyMaintenance 89264.908332825
scalar OsgEarthNet.uav[71] utilizationEnergyCharge 212092.72888184
scalar OsgEarthNet.uav[71] utilizationEnergyOverdrawMission 0
scalar OsgEarthNet.uav[71] utilizationEnergyOverdrawMaintenance 0
scalar OsgEarthNet.uav[71] utilizationCountMissions 47
scalar OsgEarthNet.uav[71] utilizationCountManeuversMission 442
scalar OsgEarthNet.uav[71] utilizationCountManeuversMaintenance 94
scalar OsgEarthNet.uav[71] utilizationCountChargeState 47
scalar OsgEarthNet.uav[71] utilizationCountOverdrawnAfterMission 0
scalar OsgEarthNet.uav[71] utilizationCountIdleState 41
scalar OsgEarthNet.uav[71] utilizationFail 0
scalar OsgEarthNet.uav[71] simulationTime 259200
scalar OsgEarthNet.uav[72] utilizationSecMission 26104.74626324
scalar OsgEarthNet.uav[72] utilizationSecMaintenance 20276.208727102
scalar OsgEarthNet.uav[72] utilizationSecCharge 170530
scalar OsgEarthNet.uav[72] utilizationSecIdle 42289.044009658
scalar OsgEarthNet.uav[72] utilizationEnergyMission 119927.9383812
scalar OsgEarthNet.uav[72] utilizationEnergyMaintenance 94407.431575775
scalar OsgEarthNet.uav[72] utilizationEnergyCharge 214119.78491211
scalar OsgEarthNet.uav[72] utilizationEnergyOverdrawMission 0
scalar OsgEarthNet.uav[72] utilizationEnergyOverdrawMaintenance 0
scalar OsgEarthNet.uav[72] utilizationCountMissions 47
scalar OsgEarthNet.uav[72] utilizationCountManeuversMission 433
scalar OsgEarthNet.uav[72] utilizationCountManeuversMaintenance 94
scalar OsgEarthNet.uav[72] utilizationCountChargeState 47
scalar OsgEarthNet.uav[72] utilizationCountOverdrawnAfterMission 0
scalar OsgEarthNet.uav[72] utilizationCountIdleState 46
scalar OsgEarthNet.uav[72] utilizationFail 0
scalar OsgEarthNet.uav[72] simulationTime 259200
scalar OsgEarthNet.uav[73] utilizationSecMission 27829.078042125
scalar OsgEarthNet.uav[73] utilizationSecMaintenance 20388.941028211
scalar OsgEarthNet.uav[73] utilizationSecCharge 176860
scalar OsgEarthNet.uav[73] utilizationSecIdle 34121.979929665
scalar OsgEarthNet.uav[73] utilizationEnergyMission 128850.49962616
scalar OsgEarthNet.uav[73] utilizationEnergyMaintenance 94474.091407776
scalar OsgEarthNet.uav[73] utilizationEnergyCharge 223307.31030273
scalar OsgEarthNet.uav[73] utilizationEnergyOverdrawMission 0
scalar OsgEarthNet.uav[73] utilizationEnergyOverdrawMaintenance 0
scalar OsgEarthNet.uav[73] utilizationCountMissions 49
scalar OsgEarthNet.uav[73] utilizationCountManeuversMission 437
scalar OsgEarthNet.uav[73] utilizationCountManeuversMaintenance 98
scalar OsgEarthNet.uav[73] utilizationCountChargeState 49
scalar OsgEarthNet.uav[73] utilizationCountOverdrawnAfterMission 0
scalar OsgEarthNet.uav[73] utilizationCountIdleState 39
scalar OsgEarthNet.uav[73] utilizationFail 0
scalar OsgEarthNet.uav[73] simulationTime 259200
scalar OsgEarthNet.uav[74] utilizationSecMission 29146.025021683
scalar OsgEarthNet.uav[74] utilizationSecMaintenance 19867.076739831
scalar OsgEarthNet.uav[74] utilizationSecCharge 176669.40360074
scalar OsgEarthNet.uav[74] utilizationSecIdle 33517.493637743
scalar OsgEarthNet.uav[74] utilizationEnergyMission 133741.70629501
scalar OsgEarthNet.uav[74] utilizationEnergyMaintenance 94012.725898743
scalar OsgEarthNet.uav[74] utilizationEnergyCharge 223757.92321777
scalar OsgEarthNet.uav[74] utilizationEnergyOverdrawMission 0
scalar OsgEarthNet.uav[74] utilizationEnergyOverdrawMaintenance 0
scalar OsgEarthNet.uav[74] utilizationCountMissions 49
scalar OsgEarthNet.uav[74] utilizationCountManeuversMission 489
scalar OsgEarthNet.uav[74] utilizationCountManeuversMaintenance 98
scalar OsgEarthNet.uav[74] utilizationCountChargeState 49
scalar OsgEarthNet.uav[74] utilizationCountOverdrawnAfterMission 0
scalar OsgEarthNet.uav[74] utilizationCountIdleState 41
scalar OsgEarthNet.uav[74] utilizationFail 0
scalar OsgEarthNet.uav[74] simulationTime 259200
scalar OsgEarthNet.uav[75] utilizationSecMission 26334.915811583
scalar OsgEarthNet.uav[75] utilizationSecMaintenance 23391.525885896
scalar OsgEarthNet.uav[75] utilizationSecCharge 180668.44772812
scalar OsgEarthNet.uav[75] utilizationSecIdle 28805.109574399
scalar OsgEarthNet.uav[75] utilizationEnergyMission 122000.31796265
scalar OsgEarthNet.uav[75] utilizationEnergyMaintenance 107589.87378311
scalar OsgEarthNet.uav[75] utilizationEnergyCharge 227262.14453125
scalar OsgEarthNet.uav[75] utilizationEnergyOverdrawMission 0
scalar OsgEarthNet.uav[75] utilizationEnergyOverdrawMaintenance 0
scalar OsgEarthNet.uav[75] utilizationCountMissions 51
scalar OsgEarthNet.uav[75] utilizationCountManeuversMission 430
scalar OsgEarthNet.uav[75] utilizationCountManeuversMaintenance 102
scalar OsgEarthNet.uav[75] utilizationCountChargeState 51
scalar OsgEarthNet.uav[75] utilizationCountOverdrawnAfterMission 0
scalar OsgEarthNet.uav[75] utilizationCountIdleState 42
scalar OsgEarthNet.uav[75] utilizationFail 0
scalar OsgEarthNet.uav[75] simulationTime 259200
scalar OsgEarthNet.uav[76] utilizationSecMission 28939.440024994
scalar OsgEarthNet.uav[76] utilizationSecMaintenance 21511.84664483
scalar OsgEarthNet.uav[76] utilizationSecCharge 184213.44174746
scalar OsgEarthNet.uav[76] utilizationSecIdle 24535.270582712
scalar OsgEarthNet.uav[76] utilizationEnergyMission 134056.34267426
scalar OsgEarthNet.uav[76] utilizationEnergyMaintenance 100404.27611542
scalar OsgEarthNet.uav[76] utilizationEnergyCharge 233468.53271484
scalar OsgEarthNet.uav[76] utilizationEnergyOverdrawMission 0
scalar OsgEarthNet.uav[76] utilizationEnergyOverdrawMaintenance 0
scalar OsgEarthNet.uav[76] utilizationCountMissions 51
scalar OsgEarthNet.uav[76] utilizationCountManeuversMission 471
scalar OsgEarthNet.uav[76] utilizationCountManeuversMaintenance 102
scalar OsgEarthNet.uav[76] utilizationCountChargeState 51
scalar OsgEarthNet.uav[76] utilizationCountOverdrawnAfterMission 0
scalar OsgEarthNet.uav[76] utilizationCountIdleState 39
scalar OsgEarthNet.uav[76] utilizationFail 0
scalar OsgEarthNet.uav[76] simulationTime 259200
scalar OsgEarthNet.uav[77] utilizationSecMission 27111.157714397
scalar OsgEarthNet.uav[77] utilizationSecMaintenance 23340.39578582
scalar OsgEarthNet.uav[77] utilizationSecCharge 183040.31758371
scalar OsgEarthNet.uav[77] utilizationSecIdle 25708.127916069
scalar OsgEarthNet.uav[77] utilizationEnergyMission 125319.00622559
scalar OsgEarthNet.uav[77] utilizationEnergyMaintenance 109011.86299133
scalar OsgEarthNet.uav[77] utilizationEnergyCharge 232842.27685547
scalar OsgEarthNet.uav[77] utilizationEnergyOverdrawMission 0
scalar OsgEarthNet.uav[77] utilizationEnergyOverdrawMaintenance 0
scalar OsgEarthNet.uav[77] utilizationCountMissions 51
scalar OsgEarthNet.uav[77] utilizationCountManeuversMission 444
scalar OsgEarthNet.uav[77] utilizationCountManeuversMaintenance 102
scalar OsgEarthNet.uav[77] utilizationCountChargeState 51
scalar OsgEarthNet.uav[77] utilizationCountOverdrawnAfterMission 0
scalar OsgEarthNet.uav[77] utilizationCountIdleState 36
scalar OsgEarthNet.uav[77] utilizationFail 0
scalar OsgEarthNet.uav[77] simulationTime 259200
scalar OsgEarthNet.uav[78] utilizationSecMission 29827.960498224
scalar OsgEarthNet.uav[78] utilizationSecMaintenance 20856.526833306
scalar OsgEarthNet.uav[78] utilizationSecCharge 186395.13818626
scalar OsgEarthNet.uav[78] utilizationSecIdle 22120.373482213
scalar OsgEarthNet.uav[78] utilizationEnergyMission 138245.84440613
scalar OsgEarthNet.uav[78] utilizationEnergyMaintenance 97871.25718689
scalar OsgEarthNet.uav[78] utilizationEnergyCharge 235667.32275391
scalar OsgEarthNet.uav[78] utilizationEnergyOverdrawMission 0
scalar OsgEarthNet.uav[78] utilizationEnergyOverdrawMaintenance 0
scalar OsgEarthNet.uav[78] utilizationCountMissions 52
scalar OsgEarthNet.uav[78] utilizationCountManeuversMission 491
scalar OsgEarthNet.uav[78] utilizationCountManeuversMaintenance 104
scalar OsgEarthNet.uav[78] utilizationCountChargeState 52
scalar OsgEarthNet.uav[78] utilizationCountOverdrawnAfterMission 0
scalar OsgEarthNet.uav[78] utilizationCountIdleState 39
scalar OsgEarthNet.uav[78] utilizationFail 0
scalar OsgEarthNet.uav[78] simulationTime 259200
scalar OsgEarthNet.uav[79] utilizationSecMission 27293.18890383
scalar OsgEarthNet.uav[79] utilizationSecMaintenance 23686.129489339
scalar OsgEarthNet.uav[79] utilizationSecCharge 184310
scalar OsgEarthNet.uav[79] utilizationSecIdle 23910.680606831
scalar OsgEarthNet.uav[79] utilizationEnergyMission 124911.33971458
scalar OsgEarthNet.uav[79] utilizationEnergyMaintenance 109720.61843109
scalar OsgEarthNet.uav[79] utilizationEnergyCharge 232750.84082031
scalar OsgEarthNet.uav[79] utilizationEnergyOverdrawMission 0
scalar OsgEarthNet.uav[79] utilizationEnergyOverdrawMaintenance 0
scalar OsgEarthNet.uav[79] utilizationCountMissions 51
scalar OsgEarthNet.uav[79] utilizationCountManeuversMission 448
scalar OsgEarthNet.uav[79] utilizationCountManeuversMaintenance 103
scalar OsgEarthNet.uav[79] utilizationCountChargeState 51
scalar OsgEarthNet.uav[79] utilizationCountOverdrawnAfterMission 0
scalar OsgEarthNet.uav[79] utilizationCountIdleState 39
scalar OsgEarthNet.uav[79] utilizationFail 0
scalar OsgEarthNet.uav[79] simulationTime 259200
scalar OsgEarthNet.cs[0] usedPower 2074518.4182483
scalar OsgEarthNet.cs[0] chargedPower 2074518.4182483
scalar OsgEarthNet.cs[0] chargedMobileNodes 435
scalar OsgEarthNet.cs[0] reservations 461
scalar OsgEarthNet.cs[1] usedPower 2911819.571213
scalar OsgEarthNet.cs[1] chargedPower 2911819.571213
scalar OsgEarthNet.cs[1] chargedMobileNodes 592
scalar OsgEarthNet.cs[1] reservations 632
scalar OsgEarthNet.cs[2] usedPower 4945830.4136767
scalar OsgEarthNet.cs[2] chargedPower 4945830.4136767
scalar OsgEarthNet.cs[2] chargedMobileNodes 1032
scalar OsgEarthNet.cs[2] reservations 1093

