version 2
run Szenario_Hotel_Gabelbach-79-20180710-03:44:29-37316
attr configname Szenario_Hotel_Gabelbach
attr datetime 20180710-03:44:29
attr experiment Szenario_Hotel_Gabelbach
attr inifile omnetpp.ini
attr iterationvars "$numUAVs=60, $replM=0"
attr iterationvarsf numUAVs=60,replM=0-
attr measurement "$numUAVs=60, $replM=0"
attr network OsgEarthNet
attr processid 37316
attr repetition 15
attr replication #15
attr resultdir results
attr runnumber 79
attr seedset 79
itervar numUAVs 60
itervar replM 0
param *.osgEarthScene.scene "\"Szenario_Hotel_Gabelbach.earth\""
param *.playgroundLatitude 50.6830269
param *.playgroundLongitude 10.8538055
param *.playgroundWidth 3500m
param *.playgroundHeight 3500m
param *.numCSs 3
param *.cs[0].posX 3537m
param *.cs[0].posY 965m
param *.cs[0].posZ 538m
param *.cs[1].posX 312m
param *.cs[1].posY 1262m
param *.cs[1].posZ 539m
param *.cs[2].posX 2185m
param *.cs[2].posY 3026m
param *.cs[2].posZ 777m
param *.cs[3].posX 10m
param *.cs[3].posY 2200m
param *.cs[3].posZ 560m
param *.cs[4].posX 750m
param *.cs[4].posY 200m
param *.cs[4].posZ 540m
param *.cs[5].posX 2450m
param *.cs[5].posY 180m
param *.cs[5].posZ 524m
param *.cs[6].posX 3140m
param *.cs[6].posY 1790m
param *.cs[6].posZ 606m
param *.numUAVs 60
param *.uav[*].replacementMethod 0
param *.*.timeStep 10s
param *.uav[*].commandPreviewCommandCount 20
param *.missionControl.missionFiles "\"missions\\\\Szenario_WB_Hotel_Gabelbach_Mission_Hotel.waypoints,missions\\\\Szenario_WB_Hotel_Gabelbach_Mission_Kickelhahn.waypoints,missions\\\\Szenario_WB_Hotel_Gabelbach_Mission_Ilmenau_Sportplatz.waypoints,missions\\\\Szenario_WB_Hotel_Gabelbach_Mission_Manebach_Mitte.waypoints,missions\\\\Szenario_WB_Hotel_Gabelbach_Mission_Manebach_Sued.waypoints\""
param *.missionControl.missionFiles "\"missions\\\\Szenario_WB_Hotel_Gabelbach_Mission_Hotel.waypoints,missions\\\\Szenario_WB_Hotel_Gabelbach_Mission_Kickelhahn.waypoints,missions\\\\Szenario_WB_Hotel_Gabelbach_Mission_Ilmenau_Sportplatz.waypoints,missions\\\\Szenario_WB_Hotel_Gabelbach_Mission_Manebach_Mitte.waypoints,missions\\\\Szenario_WB_Hotel_Gabelbach_Mission_Manebach_Sued.waypoints,missions\\\\Szenario_WB_Hotel_Gabelbach_Hover_HoheSchlaufe.waypoints,missions\\\\Szenario_WB_Hotel_Gabelbach_Hover_Kickelhahn.waypoints,missions\\\\Szenario_WB_Hotel_Gabelbach_Hover_Gabelbachskopf.waypoints,missions\\\\Szenario_WB_Hotel_Gabelbach_Hover_Dachskopf.waypoints\""
param *.uav[0].startX 3537m
param *.uav[0].startY 965m
param *.uav[0].startZ 539m
param *.uav[1].startX 312m
param *.uav[1].startY 1262m
param *.uav[1].startZ 540m
param *.uav[2].startX 2185m
param *.uav[2].startY 3026m
param *.uav[2].startZ 778m
param *.uav[3].startX 3537m
param *.uav[3].startY 965m
param *.uav[3].startZ 539m
param *.uav[4].startX 312m
param *.uav[4].startY 1262m
param *.uav[4].startZ 540m
param *.uav[5].startX 2185m
param *.uav[5].startY 3026m
param *.uav[5].startZ 778m
param *.uav[6].startX 3537m
param *.uav[6].startY 965m
param *.uav[6].startZ 539m
param *.uav[7].startX 312m
param *.uav[7].startY 1262m
param *.uav[7].startZ 540m
param *.uav[8].startX 2185m
param *.uav[8].startY 3026m
param *.uav[8].startZ 778m
param *.uav[9].startX 3537m
param *.uav[9].startY 965m
param *.uav[9].startZ 539m
param *.uav[10].startX 3537m
param *.uav[10].startY 965m
param *.uav[10].startZ 539m
param *.uav[11].startX 312m
param *.uav[11].startY 1262m
param *.uav[11].startZ 540m
param *.uav[12].startX 2185m
param *.uav[12].startY 3026m
param *.uav[12].startZ 778m
param *.uav[13].startX 3537m
param *.uav[13].startY 965m
param *.uav[13].startZ 539m
param *.uav[14].startX 312m
param *.uav[14].startY 1262m
param *.uav[14].startZ 540m
param *.uav[15].startX 2185m
param *.uav[15].startY 3026m
param *.uav[15].startZ 778m
param *.uav[16].startX 3537m
param *.uav[16].startY 965m
param *.uav[16].startZ 539m
param *.uav[17].startX 312m
param *.uav[17].startY 1262m
param *.uav[17].startZ 540m
param *.uav[18].startX 2185m
param *.uav[18].startY 3026m
param *.uav[18].startZ 778m
param *.uav[19].startX 3537m
param *.uav[19].startY 965m
param *.uav[19].startZ 539m
param *.uav[20].startX 3537m
param *.uav[20].startY 965m
param *.uav[20].startZ 539m
param *.uav[21].startX 312m
param *.uav[21].startY 1262m
param *.uav[21].startZ 540m
param *.uav[22].startX 2185m
param *.uav[22].startY 3026m
param *.uav[22].startZ 778m
param *.uav[23].startX 3537m
param *.uav[23].startY 965m
param *.uav[23].startZ 539m
param *.uav[24].startX 312m
param *.uav[24].startY 1262m
param *.uav[24].startZ 540m
param *.uav[25].startX 2185m
param *.uav[25].startY 3026m
param *.uav[25].startZ 778m
param *.uav[26].startX 3537m
param *.uav[26].startY 965m
param *.uav[26].startZ 539m
param *.uav[27].startX 312m
param *.uav[27].startY 1262m
param *.uav[27].startZ 540m
param *.uav[28].startX 2185m
param *.uav[28].startY 3026m
param *.uav[28].startZ 778m
param *.uav[29].startX 3537m
param *.uav[29].startY 965m
param *.uav[29].startZ 539m
param *.uav[30].startX 3537m
param *.uav[30].startY 965m
param *.uav[30].startZ 539m
param *.uav[31].startX 312m
param *.uav[31].startY 1262m
param *.uav[31].startZ 540m
param *.uav[32].startX 2185m
param *.uav[32].startY 3026m
param *.uav[32].startZ 778m
param *.uav[33].startX 3537m
param *.uav[33].startY 965m
param *.uav[33].startZ 539m
param *.uav[34].startX 312m
param *.uav[34].startY 1262m
param *.uav[34].startZ 540m
param *.uav[35].startX 2185m
param *.uav[35].startY 3026m
param *.uav[35].startZ 778m
param *.uav[36].startX 3537m
param *.uav[36].startY 965m
param *.uav[36].startZ 539m
param *.uav[37].startX 312m
param *.uav[37].startY 1262m
param *.uav[37].startZ 540m
param *.uav[38].startX 2185m
param *.uav[38].startY 3026m
param *.uav[38].startZ 778m
param *.uav[39].startX 3537m
param *.uav[39].startY 965m
param *.uav[39].startZ 539m
param *.uav[40].startX 3537m
param *.uav[40].startY 965m
param *.uav[40].startZ 539m
param *.uav[41].startX 312m
param *.uav[41].startY 1262m
param *.uav[41].startZ 540m
param *.uav[42].startX 2185m
param *.uav[42].startY 3026m
param *.uav[42].startZ 778m
param *.uav[43].startX 3537m
param *.uav[43].startY 965m
param *.uav[43].startZ 539m
param *.uav[44].startX 312m
param *.uav[44].startY 1262m
param *.uav[44].startZ 540m
param *.uav[45].startX 2185m
param *.uav[45].startY 3026m
param *.uav[45].startZ 778m
param *.uav[46].startX 3537m
param *.uav[46].startY 965m
param *.uav[46].startZ 539m
param *.uav[47].startX 312m
param *.uav[47].startY 1262m
param *.uav[47].startZ 540m
param *.uav[48].startX 2185m
param *.uav[48].startY 3026m
param *.uav[48].startZ 778m
param *.uav[49].startX 3537m
param *.uav[49].startY 965m
param *.uav[49].startZ 539m
param *.uav[50].startX 3537m
param *.uav[50].startY 965m
param *.uav[50].startZ 539m
param *.uav[51].startX 312m
param *.uav[51].startY 1262m
param *.uav[51].startZ 540m
param *.uav[52].startX 2185m
param *.uav[52].startY 3026m
param *.uav[52].startZ 778m
param *.uav[53].startX 3537m
param *.uav[53].startY 965m
param *.uav[53].startZ 539m
param *.uav[54].startX 312m
param *.uav[54].startY 1262m
param *.uav[54].startZ 540m
param *.uav[55].startX 2185m
param *.uav[55].startY 3026m
param *.uav[55].startZ 778m
param *.uav[56].startX 3537m
param *.uav[56].startY 965m
param *.uav[56].startZ 539m
param *.uav[57].startX 312m
param *.uav[57].startY 1262m
param *.uav[57].startZ 540m
param *.uav[58].startX 2185m
param *.uav[58].startY 3026m
param *.uav[58].startZ 778m
param *.uav[59].startX 3537m
param *.uav[59].startY 965m
param *.uav[59].startZ 539m
param *.uav[60].startX 3537m
param *.uav[60].startY 965m
param *.uav[60].startZ 539m
param *.uav[61].startX 312m
param *.uav[61].startY 1262m
param *.uav[61].startZ 540m
param *.uav[62].startX 2185m
param *.uav[62].startY 3026m
param *.uav[62].startZ 778m
param *.uav[63].startX 3537m
param *.uav[63].startY 965m
param *.uav[63].startZ 539m
param *.uav[64].startX 312m
param *.uav[64].startY 1262m
param *.uav[64].startZ 540m
param *.uav[65].startX 2185m
param *.uav[65].startY 3026m
param *.uav[65].startZ 778m
param *.uav[66].startX 3537m
param *.uav[66].startY 965m
param *.uav[66].startZ 539m
param *.uav[67].startX 312m
param *.uav[67].startY 1262m
param *.uav[67].startZ 540m
param *.uav[68].startX 2185m
param *.uav[68].startY 3026m
param *.uav[68].startZ 778m
param *.uav[69].startX 3537m
param *.uav[69].startY 965m
param *.uav[69].startZ 539m
param *.uav[70].startX 3537m
param *.uav[70].startY 965m
param *.uav[70].startZ 539m
param *.uav[71].startX 312m
param *.uav[71].startY 1262m
param *.uav[71].startZ 540m
param *.uav[72].startX 2185m
param *.uav[72].startY 3026m
param *.uav[72].startZ 778m
param *.uav[73].startX 3537m
param *.uav[73].startY 965m
param *.uav[73].startZ 539m
param *.uav[74].startX 312m
param *.uav[74].startY 1262m
param *.uav[74].startZ 540m
param *.uav[75].startX 2185m
param *.uav[75].startY 3026m
param *.uav[75].startZ 778m
param *.uav[76].startX 3537m
param *.uav[76].startY 965m
param *.uav[76].startZ 539m
param *.uav[77].startX 312m
param *.uav[77].startY 1262m
param *.uav[77].startZ 540m
param *.uav[78].startX 2185m
param *.uav[78].startY 3026m
param *.uav[78].startZ 778m
param *.uav[79].startX 3537m
param *.uav[79].startY 965m
param *.uav[79].startZ 539m
param *.uav[80].startX 3537m
param *.uav[80].startY 965m
param *.uav[80].startZ 539m
param *.uav[81].startX 312m
param *.uav[81].startY 1262m
param *.uav[81].startZ 540m
param *.uav[82].startX 2185m
param *.uav[82].startY 3026m
param *.uav[82].startZ 778m
param *.uav[83].startX 3537m
param *.uav[83].startY 965m
param *.uav[83].startZ 539m
param *.uav[84].startX 312m
param *.uav[84].startY 1262m
param *.uav[84].startZ 540m
param *.uav[85].startX 2185m
param *.uav[85].startY 3026m
param *.uav[85].startZ 778m
param *.uav[86].startX 3537m
param *.uav[86].startY 965m
param *.uav[86].startZ 539m
param *.uav[87].startX 312m
param *.uav[87].startY 1262m
param *.uav[87].startZ 540m
param *.uav[88].startX 2185m
param *.uav[88].startY 3026m
param *.uav[88].startZ 778m
param *.uav[89].startX 3537m
param *.uav[89].startY 965m
param *.uav[89].startZ 539m
param *.uav[90].startX 3537m
param *.uav[90].startY 965m
param *.uav[90].startZ 539m
param *.uav[91].startX 312m
param *.uav[91].startY 1262m
param *.uav[91].startZ 540m
param *.uav[92].startX 2185m
param *.uav[92].startY 3026m
param *.uav[92].startZ 778m
param *.uav[93].startX 3537m
param *.uav[93].startY 965m
param *.uav[93].startZ 539m
param *.uav[94].startX 312m
param *.uav[94].startY 1262m
param *.uav[94].startZ 540m
param *.uav[95].startX 2185m
param *.uav[95].startY 3026m
param *.uav[95].startZ 778m
param *.uav[96].startX 3537m
param *.uav[96].startY 965m
param *.uav[96].startZ 539m
param *.uav[97].startX 312m
param *.uav[97].startY 1262m
param *.uav[97].startZ 540m
param *.uav[98].startX 2185m
param *.uav[98].startY 3026m
param *.uav[98].startZ 778m
param *.uav[99].startX 3537m
param *.uav[99].startY 965m
param *.uav[99].startZ 539m
param *.osgEarthScene.scene "\"boston.earth\""
param *.playgroundLatitude 42.3558
param *.playgroundLongitude -71.0677
param *.playgroundWidth 400m
param *.playgroundHeight 200m
param *.channelController.connectionColor "\"#0000FF40\""
param *.channelController.showConnections false
param *.uav[*].modelURL "\"quadrocopter.small.obj.15.scale.0,0,90.rot\""
param *.uav[*].labelColor "\"#FF7C00CC\""
param *.uav[*].label2Color "\"#FF7C00EE\""
param *.uav[*].batteryCapacity 5200mAh
param *.uav[*].batteryRemaining uav[index].batteryCapacity
param *.uav[*].predictionQuantile 0.95
param *.uav[*].replacementMethod 2
param *.uav[*].weightedSumWeight 0.5
param *.cs[*].modelURL "\"chargingstation_v1.osgt.2.scale.0,0,0.rot.0,0,-15e-1.trans\""
param *.cs[*].spotsWaiting 999
param *.cs[*].spotsCharging 999
param *.cs[*].chargeEffectivenessPercentage 100
param *.cs[*].nonLinearPhaseStartPercentage 85
param *.cs[*].chargeCurrent 6.0A
param *.cs[*].prioritizeFastCharge true
param *.missionControl.replacementSearchMethod 0
param *.*.timeStep 9s

scalar OsgEarthNet.uav[0] utilizationSecMission 30446.990577399
scalar OsgEarthNet.uav[0] utilizationSecMaintenance 19493.702018834
scalar OsgEarthNet.uav[0] utilizationSecCharge 181957.30640377
scalar OsgEarthNet.uav[0] utilizationSecIdle 27302
scalar OsgEarthNet.uav[0] utilizationEnergyMission 139812.32363129
scalar OsgEarthNet.uav[0] utilizationEnergyMaintenance 89858.266590118
scalar OsgEarthNet.uav[0] utilizationEnergyCharge 229517.10595703
scalar OsgEarthNet.uav[0] utilizationEnergyOverdrawMission 0
scalar OsgEarthNet.uav[0] utilizationEnergyOverdrawMaintenance 0
scalar OsgEarthNet.uav[0] utilizationCountMissions 50
scalar OsgEarthNet.uav[0] utilizationCountManeuversMission 487
scalar OsgEarthNet.uav[0] utilizationCountManeuversMaintenance 99
scalar OsgEarthNet.uav[0] utilizationCountChargeState 50
scalar OsgEarthNet.uav[0] utilizationCountOverdrawnAfterMission 0
scalar OsgEarthNet.uav[0] utilizationCountIdleState 50
scalar OsgEarthNet.uav[0] utilizationFail 0
scalar OsgEarthNet.uav[0] simulationTime 259200
scalar OsgEarthNet.uav[1] utilizationSecMission 25553.620792856
scalar OsgEarthNet.uav[1] utilizationSecMaintenance 17779.383467422
scalar OsgEarthNet.uav[1] utilizationSecCharge 157104.27324532
scalar OsgEarthNet.uav[1] utilizationSecIdle 58762.721494397
scalar OsgEarthNet.uav[1] utilizationEnergyMission 117791.96340942
scalar OsgEarthNet.uav[1] utilizationEnergyMaintenance 80205.039398193
scalar OsgEarthNet.uav[1] utilizationEnergyCharge 198511.20703125
scalar OsgEarthNet.uav[1] utilizationEnergyOverdrawMission 0
scalar OsgEarthNet.uav[1] utilizationEnergyOverdrawMaintenance 0
scalar OsgEarthNet.uav[1] utilizationCountMissions 43
scalar OsgEarthNet.uav[1] utilizationCountManeuversMission 425
scalar OsgEarthNet.uav[1] utilizationCountManeuversMaintenance 86
scalar OsgEarthNet.uav[1] utilizationCountChargeState 43
scalar OsgEarthNet.uav[1] utilizationCountOverdrawnAfterMission 0
scalar OsgEarthNet.uav[1] utilizationCountIdleState 43
scalar OsgEarthNet.uav[1] utilizationFail 0
scalar OsgEarthNet.uav[1] simulationTime 259200
scalar OsgEarthNet.uav[2] utilizationSecMission 6497.2902271607
scalar OsgEarthNet.uav[2] utilizationSecMaintenance 3568.9860892974
scalar OsgEarthNet.uav[2] utilizationSecCharge 36860
scalar OsgEarthNet.uav[2] utilizationSecIdle 212273.72268354
scalar OsgEarthNet.uav[2] utilizationEnergyMission 29907.060821533
scalar OsgEarthNet.uav[2] utilizationEnergyMaintenance 16466.675468445
scalar OsgEarthNet.uav[2] utilizationEnergyCharge 46472.847167969
scalar OsgEarthNet.uav[2] utilizationEnergyOverdrawMission 0
scalar OsgEarthNet.uav[2] utilizationEnergyOverdrawMaintenance 0
scalar OsgEarthNet.uav[2] utilizationCountMissions 10
scalar OsgEarthNet.uav[2] utilizationCountManeuversMission 104
scalar OsgEarthNet.uav[2] utilizationCountManeuversMaintenance 20
scalar OsgEarthNet.uav[2] utilizationCountChargeState 10
scalar OsgEarthNet.uav[2] utilizationCountOverdrawnAfterMission 0
scalar OsgEarthNet.uav[2] utilizationCountIdleState 11
scalar OsgEarthNet.uav[2] utilizationFail 0
scalar OsgEarthNet.uav[2] simulationTime 259200
scalar OsgEarthNet.uav[3] utilizationSecMission 25871.361687766
scalar OsgEarthNet.uav[3] utilizationSecMaintenance 21556.967593565
scalar OsgEarthNet.uav[3] utilizationSecCharge 175240
scalar OsgEarthNet.uav[3] utilizationSecIdle 36531.669718669
scalar OsgEarthNet.uav[3] utilizationEnergyMission 121001.67163849
scalar OsgEarthNet.uav[3] utilizationEnergyMaintenance 99312.849880219
scalar OsgEarthNet.uav[3] utilizationEnergyCharge 219942.55151367
scalar OsgEarthNet.uav[3] utilizationEnergyOverdrawMission 0
scalar OsgEarthNet.uav[3] utilizationEnergyOverdrawMaintenance 0
scalar OsgEarthNet.uav[3] utilizationCountMissions 48
scalar OsgEarthNet.uav[3] utilizationCountManeuversMission 419
scalar OsgEarthNet.uav[3] utilizationCountManeuversMaintenance 96
scalar OsgEarthNet.uav[3] utilizationCountChargeState 48
scalar OsgEarthNet.uav[3] utilizationCountOverdrawnAfterMission 0
scalar OsgEarthNet.uav[3] utilizationCountIdleState 49
scalar OsgEarthNet.uav[3] utilizationFail 0
scalar OsgEarthNet.uav[3] simulationTime 259200
scalar OsgEarthNet.uav[4] utilizationSecMission 28625.786447912
scalar OsgEarthNet.uav[4] utilizationSecMaintenance 20472.212552088
scalar OsgEarthNet.uav[4] utilizationSecCharge 178960
scalar OsgEarthNet.uav[4] utilizationSecIdle 31142
scalar OsgEarthNet.uav[4] utilizationEnergyMission 134022.68019841
scalar OsgEarthNet.uav[4] utilizationEnergyMaintenance 93835.92086792
scalar OsgEarthNet.uav[4] utilizationEnergyCharge 225035.64477539
scalar OsgEarthNet.uav[4] utilizationEnergyOverdrawMission 0
scalar OsgEarthNet.uav[4] utilizationEnergyOverdrawMaintenance 0
scalar OsgEarthNet.uav[4] utilizationCountMissions 49
scalar OsgEarthNet.uav[4] utilizationCountManeuversMission 474
scalar OsgEarthNet.uav[4] utilizationCountManeuversMaintenance 98
scalar OsgEarthNet.uav[4] utilizationCountChargeState 49
scalar OsgEarthNet.uav[4] utilizationCountOverdrawnAfterMission 0
scalar OsgEarthNet.uav[4] utilizationCountIdleState 50
scalar OsgEarthNet.uav[4] utilizationFail 0
scalar OsgEarthNet.uav[4] simulationTime 259200
scalar OsgEarthNet.uav[5] utilizationSecMission 21712.421397259
scalar OsgEarthNet.uav[5] utilizationSecMaintenance 16509.788399668
scalar OsgEarthNet.uav[5] utilizationSecCharge 139011.08384053
scalar OsgEarthNet.uav[5] utilizationSecIdle 81966.705362542
scalar OsgEarthNet.uav[5] utilizationEnergyMission 100384.50844574
scalar OsgEarthNet.uav[5] utilizationEnergyMaintenance 77708.635955811
scalar OsgEarthNet.uav[5] utilizationEnergyCharge 174380.9486084
scalar OsgEarthNet.uav[5] utilizationEnergyOverdrawMission 0
scalar OsgEarthNet.uav[5] utilizationEnergyOverdrawMaintenance 0
scalar OsgEarthNet.uav[5] utilizationCountMissions 39
scalar OsgEarthNet.uav[5] utilizationCountManeuversMission 355
scalar OsgEarthNet.uav[5] utilizationCountManeuversMaintenance 78
scalar OsgEarthNet.uav[5] utilizationCountChargeState 39
scalar OsgEarthNet.uav[5] utilizationCountOverdrawnAfterMission 0
scalar OsgEarthNet.uav[5] utilizationCountIdleState 39
scalar OsgEarthNet.uav[5] utilizationFail 0
scalar OsgEarthNet.uav[5] simulationTime 259200
scalar OsgEarthNet.uav[6] utilizationSecMission 25239.187565564
scalar OsgEarthNet.uav[6] utilizationSecMaintenance 19301.452637828
scalar OsgEarthNet.uav[6] utilizationSecCharge 164126.90991665
scalar OsgEarthNet.uav[6] utilizationSecIdle 50532.448879959
scalar OsgEarthNet.uav[6] utilizationEnergyMission 116903.37294769
scalar OsgEarthNet.uav[6] utilizationEnergyMaintenance 89760.425720215
scalar OsgEarthNet.uav[6] utilizationEnergyCharge 206325.38769531
scalar OsgEarthNet.uav[6] utilizationEnergyOverdrawMission 0
scalar OsgEarthNet.uav[6] utilizationEnergyOverdrawMaintenance 0
scalar OsgEarthNet.uav[6] utilizationCountMissions 45
scalar OsgEarthNet.uav[6] utilizationCountManeuversMission 414
scalar OsgEarthNet.uav[6] utilizationCountManeuversMaintenance 90
scalar OsgEarthNet.uav[6] utilizationCountChargeState 45
scalar OsgEarthNet.uav[6] utilizationCountOverdrawnAfterMission 0
scalar OsgEarthNet.uav[6] utilizationCountIdleState 45
scalar OsgEarthNet.uav[6] utilizationFail 0
scalar OsgEarthNet.uav[6] simulationTime 259200
scalar OsgEarthNet.uav[7] utilizationSecMission 18249.674410583
scalar OsgEarthNet.uav[7] utilizationSecMaintenance 13629.975665502
scalar OsgEarthNet.uav[7] utilizationSecCharge 116110
scalar OsgEarthNet.uav[7] utilizationSecIdle 111210.34892391
scalar OsgEarthNet.uav[7] utilizationEnergyMission 84637.02814395
scalar OsgEarthNet.uav[7] utilizationEnergyMaintenance 62932.789382935
scalar OsgEarthNet.uav[7] utilizationEnergyCharge 145248.19018555
scalar OsgEarthNet.uav[7] utilizationEnergyOverdrawMission 0
scalar OsgEarthNet.uav[7] utilizationEnergyOverdrawMaintenance 0
scalar OsgEarthNet.uav[7] utilizationCountMissions 32
scalar OsgEarthNet.uav[7] utilizationCountManeuversMission 296
scalar OsgEarthNet.uav[7] utilizationCountManeuversMaintenance 65
scalar OsgEarthNet.uav[7] utilizationCountChargeState 32
scalar OsgEarthNet.uav[7] utilizationCountOverdrawnAfterMission 0
scalar OsgEarthNet.uav[7] utilizationCountIdleState 33
scalar OsgEarthNet.uav[7] utilizationFail 0
scalar OsgEarthNet.uav[7] simulationTime 259200
scalar OsgEarthNet.uav[8] utilizationSecMission 23254.530518893
scalar OsgEarthNet.uav[8] utilizationSecMaintenance 16784.440826381
scalar OsgEarthNet.uav[8] utilizationSecCharge 147391.39657406
scalar OsgEarthNet.uav[8] utilizationSecIdle 71769.631080665
scalar OsgEarthNet.uav[8] utilizationEnergyMission 107030.29011536
scalar OsgEarthNet.uav[8] utilizationEnergyMaintenance 78457.853206635
scalar OsgEarthNet.uav[8] utilizationEnergyCharge 185281.38427734
scalar OsgEarthNet.uav[8] utilizationEnergyOverdrawMission 0
scalar OsgEarthNet.uav[8] utilizationEnergyOverdrawMaintenance 0
scalar OsgEarthNet.uav[8] utilizationCountMissions 41
scalar OsgEarthNet.uav[8] utilizationCountManeuversMission 382
scalar OsgEarthNet.uav[8] utilizationCountManeuversMaintenance 82
scalar OsgEarthNet.uav[8] utilizationCountChargeState 41
scalar OsgEarthNet.uav[8] utilizationCountOverdrawnAfterMission 0
scalar OsgEarthNet.uav[8] utilizationCountIdleState 41
scalar OsgEarthNet.uav[8] utilizationFail 0
scalar OsgEarthNet.uav[8] simulationTime 259200
scalar OsgEarthNet.uav[9] utilizationSecMission 558.29059458083
scalar OsgEarthNet.uav[9] utilizationSecMaintenance 416.7137519136
scalar OsgEarthNet.uav[9] utilizationSecCharge 3770
scalar OsgEarthNet.uav[9] utilizationSecIdle 254454.99465351
scalar OsgEarthNet.uav[9] utilizationEnergyMission 2643.4837036133
scalar OsgEarthNet.uav[9] utilizationEnergyMaintenance 2103.9352035522
scalar OsgEarthNet.uav[9] utilizationEnergyCharge 4747.4169921875
scalar OsgEarthNet.uav[9] utilizationEnergyOverdrawMission 0
scalar OsgEarthNet.uav[9] utilizationEnergyOverdrawMaintenance 0
scalar OsgEarthNet.uav[9] utilizationCountMissions 1
scalar OsgEarthNet.uav[9] utilizationCountManeuversMission 8
scalar OsgEarthNet.uav[9] utilizationCountManeuversMaintenance 2
scalar OsgEarthNet.uav[9] utilizationCountChargeState 1
scalar OsgEarthNet.uav[9] utilizationCountOverdrawnAfterMission 0
scalar OsgEarthNet.uav[9] utilizationCountIdleState 2
scalar OsgEarthNet.uav[9] utilizationFail 0
scalar OsgEarthNet.uav[9] simulationTime 259200
scalar OsgEarthNet.uav[10] utilizationSecMission 26453.942745934
scalar OsgEarthNet.uav[10] utilizationSecMaintenance 16089.316546255
scalar OsgEarthNet.uav[10] utilizationSecCharge 156610
scalar OsgEarthNet.uav[10] utilizationSecIdle 60046.739707812
scalar OsgEarthNet.uav[10] utilizationEnergyMission 121421.74639893
scalar OsgEarthNet.uav[10] utilizationEnergyMaintenance 74930.49955548
scalar OsgEarthNet.uav[10] utilizationEnergyCharge 196175.05322266
scalar OsgEarthNet.uav[10] utilizationEnergyOverdrawMission 0
scalar OsgEarthNet.uav[10] utilizationEnergyOverdrawMaintenance 0
scalar OsgEarthNet.uav[10] utilizationCountMissions 43
scalar OsgEarthNet.uav[10] utilizationCountManeuversMission 428
scalar OsgEarthNet.uav[10] utilizationCountManeuversMaintenance 87
scalar OsgEarthNet.uav[10] utilizationCountChargeState 43
scalar OsgEarthNet.uav[10] utilizationCountOverdrawnAfterMission 0
scalar OsgEarthNet.uav[10] utilizationCountIdleState 44
scalar OsgEarthNet.uav[10] utilizationFail 0
scalar OsgEarthNet.uav[10] simulationTime 259200
scalar OsgEarthNet.uav[11] utilizationSecMission 28687.801519808
scalar OsgEarthNet.uav[11] utilizationSecMaintenance 18977.687515524
scalar OsgEarthNet.uav[11] utilizationSecCharge 176140
scalar OsgEarthNet.uav[11] utilizationSecIdle 35394.509964669
scalar OsgEarthNet.uav[11] utilizationEnergyMission 133705.78166199
scalar OsgEarthNet.uav[11] utilizationEnergyMaintenance 88812.364513397
scalar OsgEarthNet.uav[11] utilizationEnergyCharge 221732.87963867
scalar OsgEarthNet.uav[11] utilizationEnergyOverdrawMission 0
scalar OsgEarthNet.uav[11] utilizationEnergyOverdrawMaintenance 0
scalar OsgEarthNet.uav[11] utilizationCountMissions 48
scalar OsgEarthNet.uav[11] utilizationCountManeuversMission 473
scalar OsgEarthNet.uav[11] utilizationCountManeuversMaintenance 96
scalar OsgEarthNet.uav[11] utilizationCountChargeState 48
scalar OsgEarthNet.uav[11] utilizationCountOverdrawnAfterMission 0
scalar OsgEarthNet.uav[11] utilizationCountIdleState 49
scalar OsgEarthNet.uav[11] utilizationFail 0
scalar OsgEarthNet.uav[11] simulationTime 259200
scalar OsgEarthNet.uav[12] utilizationSecMission 2347.0297249205
scalar OsgEarthNet.uav[12] utilizationSecMaintenance 1710.9356775546
scalar OsgEarthNet.uav[12] utilizationSecCharge 14830
scalar OsgEarthNet.uav[12] utilizationSecIdle 240312.03359753
scalar OsgEarthNet.uav[12] utilizationEnergyMission 10810.000968933
scalar OsgEarthNet.uav[12] utilizationEnergyMaintenance 7821.4849090576
scalar OsgEarthNet.uav[12] utilizationEnergyCharge 18631.483886719
scalar OsgEarthNet.uav[12] utilizationEnergyOverdrawMission 0
scalar OsgEarthNet.uav[12] utilizationEnergyOverdrawMaintenance 0
scalar OsgEarthNet.uav[12] utilizationCountMissions 4
scalar OsgEarthNet.uav[12] utilizationCountManeuversMission 42
scalar OsgEarthNet.uav[12] utilizationCountManeuversMaintenance 8
scalar OsgEarthNet.uav[12] utilizationCountChargeState 4
scalar OsgEarthNet.uav[12] utilizationCountOverdrawnAfterMission 0
scalar OsgEarthNet.uav[12] utilizationCountIdleState 5
scalar OsgEarthNet.uav[12] utilizationFail 0
scalar OsgEarthNet.uav[12] simulationTime 259200
scalar OsgEarthNet.uav[13] utilizationSecMission 27684.103776276
scalar OsgEarthNet.uav[13] utilizationSecMaintenance 17610.081434321
scalar OsgEarthNet.uav[13] utilizationSecCharge 166490
scalar OsgEarthNet.uav[13] utilizationSecIdle 47415.813789402
scalar OsgEarthNet.uav[13] utilizationEnergyMission 126178.4347229
scalar OsgEarthNet.uav[13] utilizationEnergyMaintenance 82222.277591705
scalar OsgEarthNet.uav[13] utilizationEnergyCharge 208373.64111328
scalar OsgEarthNet.uav[13] utilizationEnergyOverdrawMission 0
scalar OsgEarthNet.uav[13] utilizationEnergyOverdrawMaintenance 0
scalar OsgEarthNet.uav[13] utilizationCountMissions 46
scalar OsgEarthNet.uav[13] utilizationCountManeuversMission 458
scalar OsgEarthNet.uav[13] utilizationCountManeuversMaintenance 92
scalar OsgEarthNet.uav[13] utilizationCountChargeState 46
scalar OsgEarthNet.uav[13] utilizationCountOverdrawnAfterMission 0
scalar OsgEarthNet.uav[13] utilizationCountIdleState 47
scalar OsgEarthNet.uav[13] utilizationFail 0
scalar OsgEarthNet.uav[13] simulationTime 259200
scalar OsgEarthNet.uav[14] utilizationSecMission 27359.426303061
scalar OsgEarthNet.uav[14] utilizationSecMaintenance 20051.557998742
scalar OsgEarthNet.uav[14] utilizationSecCharge 172959.63067883
scalar OsgEarthNet.uav[14] utilizationSecIdle 38829.384019372
scalar OsgEarthNet.uav[14] utilizationEnergyMission 125689.54273987
scalar OsgEarthNet.uav[14] utilizationEnergyMaintenance 93713.617095947
scalar OsgEarthNet.uav[14] utilizationEnergyCharge 218239.04492188
scalar OsgEarthNet.uav[14] utilizationEnergyOverdrawMission 0
scalar OsgEarthNet.uav[14] utilizationEnergyOverdrawMaintenance 0
scalar OsgEarthNet.uav[14] utilizationCountMissions 48
scalar OsgEarthNet.uav[14] utilizationCountManeuversMission 455
scalar OsgEarthNet.uav[14] utilizationCountManeuversMaintenance 96
scalar OsgEarthNet.uav[14] utilizationCountChargeState 48
scalar OsgEarthNet.uav[14] utilizationCountOverdrawnAfterMission 0
scalar OsgEarthNet.uav[14] utilizationCountIdleState 48
scalar OsgEarthNet.uav[14] utilizationFail 0
scalar OsgEarthNet.uav[14] simulationTime 259200
scalar OsgEarthNet.uav[15] utilizationSecMission 29228.77028747
scalar OsgEarthNet.uav[15] utilizationSecMaintenance 17831.80336524
scalar OsgEarthNet.uav[15] utilizationSecCharge 170540
scalar OsgEarthNet.uav[15] utilizationSecIdle 41599.42534729
scalar OsgEarthNet.uav[15] utilizationEnergyMission 135645.21590376
scalar OsgEarthNet.uav[15] utilizationEnergyMaintenance 81385.204315186
scalar OsgEarthNet.uav[15] utilizationEnergyCharge 213567.76660156
scalar OsgEarthNet.uav[15] utilizationEnergyOverdrawMission 0
scalar OsgEarthNet.uav[15] utilizationEnergyOverdrawMaintenance 0
scalar OsgEarthNet.uav[15] utilizationCountMissions 47
scalar OsgEarthNet.uav[15] utilizationCountManeuversMission 478
scalar OsgEarthNet.uav[15] utilizationCountManeuversMaintenance 95
scalar OsgEarthNet.uav[15] utilizationCountChargeState 47
scalar OsgEarthNet.uav[15] utilizationCountOverdrawnAfterMission 0
scalar OsgEarthNet.uav[15] utilizationCountIdleState 48
scalar OsgEarthNet.uav[15] utilizationFail 0
scalar OsgEarthNet.uav[15] simulationTime 259200
scalar OsgEarthNet.uav[16] utilizationSecMission 25877.4520912
scalar OsgEarthNet.uav[16] utilizationSecMaintenance 15115.04453201
scalar OsgEarthNet.uav[16] utilizationSecCharge 147883.1750312
scalar OsgEarthNet.uav[16] utilizationSecIdle 70324.327345594
scalar OsgEarthNet.uav[16] utilizationEnergyMission 119734.40846252
scalar OsgEarthNet.uav[16] utilizationEnergyMaintenance 70173.397350311
scalar OsgEarthNet.uav[16] utilizationEnergyCharge 186581.60522461
scalar OsgEarthNet.uav[16] utilizationEnergyOverdrawMission 0
scalar OsgEarthNet.uav[16] utilizationEnergyOverdrawMaintenance 0
scalar OsgEarthNet.uav[16] utilizationCountMissions 41
scalar OsgEarthNet.uav[16] utilizationCountManeuversMission 410
scalar OsgEarthNet.uav[16] utilizationCountManeuversMaintenance 82
scalar OsgEarthNet.uav[16] utilizationCountChargeState 41
scalar OsgEarthNet.uav[16] utilizationCountOverdrawnAfterMission 0
scalar OsgEarthNet.uav[16] utilizationCountIdleState 41
scalar OsgEarthNet.uav[16] utilizationFail 0
scalar OsgEarthNet.uav[16] simulationTime 259200
scalar OsgEarthNet.uav[17] utilizationSecMission 443.5870541303
scalar OsgEarthNet.uav[17] utilizationSecMaintenance 478.1855036378
scalar OsgEarthNet.uav[17] utilizationSecCharge 3500
scalar OsgEarthNet.uav[17] utilizationSecIdle 254778.22644223
scalar OsgEarthNet.uav[17] utilizationEnergyMission 1999.2432250977
scalar OsgEarthNet.uav[17] utilizationEnergyMaintenance 2325.8564567566
scalar OsgEarthNet.uav[17] utilizationEnergyCharge 4304.4389648438
scalar OsgEarthNet.uav[17] utilizationEnergyOverdrawMission 0
scalar OsgEarthNet.uav[17] utilizationEnergyOverdrawMaintenance 0
scalar OsgEarthNet.uav[17] utilizationCountMissions 1
scalar OsgEarthNet.uav[17] utilizationCountManeuversMission 7
scalar OsgEarthNet.uav[17] utilizationCountManeuversMaintenance 2
scalar OsgEarthNet.uav[17] utilizationCountChargeState 1
scalar OsgEarthNet.uav[17] utilizationCountOverdrawnAfterMission 0
scalar OsgEarthNet.uav[17] utilizationCountIdleState 2
scalar OsgEarthNet.uav[17] utilizationFail 0
scalar OsgEarthNet.uav[17] simulationTime 259200
scalar OsgEarthNet.uav[18] utilizationSecMission 1203.913036119
scalar OsgEarthNet.uav[18] utilizationSecMaintenance 882.41205944566
scalar OsgEarthNet.uav[18] utilizationSecCharge 7370
scalar OsgEarthNet.uav[18] utilizationSecIdle 249743.67390444
scalar OsgEarthNet.uav[18] utilizationEnergyMission 5331.9707794189
scalar OsgEarthNet.uav[18] utilizationEnergyMaintenance 3968.1613998413
scalar OsgEarthNet.uav[18] utilizationEnergyCharge 9300.140625
scalar OsgEarthNet.uav[18] utilizationEnergyOverdrawMission 0
scalar OsgEarthNet.uav[18] utilizationEnergyOverdrawMaintenance 0
scalar OsgEarthNet.uav[18] utilizationCountMissions 2
scalar OsgEarthNet.uav[18] utilizationCountManeuversMission 17
scalar OsgEarthNet.uav[18] utilizationCountManeuversMaintenance 4
scalar OsgEarthNet.uav[18] utilizationCountChargeState 2
scalar OsgEarthNet.uav[18] utilizationCountOverdrawnAfterMission 0
scalar OsgEarthNet.uav[18] utilizationCountIdleState 3
scalar OsgEarthNet.uav[18] utilizationFail 0
scalar OsgEarthNet.uav[18] simulationTime 259200
scalar OsgEarthNet.uav[19] utilizationSecMission 406.05775011247
scalar OsgEarthNet.uav[19] utilizationSecMaintenance 476.61924102071
scalar OsgEarthNet.uav[19] utilizationSecCharge 3480
scalar OsgEarthNet.uav[19] utilizationSecIdle 254837.32200887
scalar OsgEarthNet.uav[19] utilizationEnergyMission 1856.4406738281
scalar OsgEarthNet.uav[19] utilizationEnergyMaintenance 2397.7725448608
scalar OsgEarthNet.uav[19] utilizationEnergyCharge 4254.2104492188
scalar OsgEarthNet.uav[19] utilizationEnergyOverdrawMission 0
scalar OsgEarthNet.uav[19] utilizationEnergyOverdrawMaintenance 0
scalar OsgEarthNet.uav[19] utilizationCountMissions 1
scalar OsgEarthNet.uav[19] utilizationCountManeuversMission 6
scalar OsgEarthNet.uav[19] utilizationCountManeuversMaintenance 2
scalar OsgEarthNet.uav[19] utilizationCountChargeState 1
scalar OsgEarthNet.uav[19] utilizationCountOverdrawnAfterMission 0
scalar OsgEarthNet.uav[19] utilizationCountIdleState 2
scalar OsgEarthNet.uav[19] utilizationFail 0
scalar OsgEarthNet.uav[19] simulationTime 259200
scalar OsgEarthNet.uav[20] utilizationSecMission 21995.341953845
scalar OsgEarthNet.uav[20] utilizationSecMaintenance 13836.880845694
scalar OsgEarthNet.uav[20] utilizationSecCharge 133580
scalar OsgEarthNet.uav[20] utilizationSecIdle 89787.776200461
scalar OsgEarthNet.uav[20] utilizationEnergyMission 104014.82256278
scalar OsgEarthNet.uav[20] utilizationEnergyMaintenance 65824.928340912
scalar OsgEarthNet.uav[20] utilizationEnergyCharge 168672.43945312
scalar OsgEarthNet.uav[20] utilizationEnergyOverdrawMission 0
scalar OsgEarthNet.uav[20] utilizationEnergyOverdrawMaintenance 0
scalar OsgEarthNet.uav[20] utilizationCountMissions 36
scalar OsgEarthNet.uav[20] utilizationCountManeuversMission 349
scalar OsgEarthNet.uav[20] utilizationCountManeuversMaintenance 73
scalar OsgEarthNet.uav[20] utilizationCountChargeState 36
scalar OsgEarthNet.uav[20] utilizationCountOverdrawnAfterMission 0
scalar OsgEarthNet.uav[20] utilizationCountIdleState 37
scalar OsgEarthNet.uav[20] utilizationFail 0
scalar OsgEarthNet.uav[20] simulationTime 259200
scalar OsgEarthNet.uav[21] utilizationSecMission 608.41235740769
scalar OsgEarthNet.uav[21] utilizationSecMaintenance 411.08654793843
scalar OsgEarthNet.uav[21] utilizationSecCharge 3700
scalar OsgEarthNet.uav[21] utilizationSecIdle 254480.50009465
scalar OsgEarthNet.uav[21] utilizationEnergyMission 2762.7295074463
scalar OsgEarthNet.uav[21] utilizationEnergyMaintenance 1903.4616012573
scalar OsgEarthNet.uav[21] utilizationEnergyCharge 4666.1884765625
scalar OsgEarthNet.uav[21] utilizationEnergyOverdrawMission 0
scalar OsgEarthNet.uav[21] utilizationEnergyOverdrawMaintenance 0
scalar OsgEarthNet.uav[21] utilizationCountMissions 1
scalar OsgEarthNet.uav[21] utilizationCountManeuversMission 11
scalar OsgEarthNet.uav[21] utilizationCountManeuversMaintenance 2
scalar OsgEarthNet.uav[21] utilizationCountChargeState 1
scalar OsgEarthNet.uav[21] utilizationCountOverdrawnAfterMission 0
scalar OsgEarthNet.uav[21] utilizationCountIdleState 2
scalar OsgEarthNet.uav[21] utilizationFail 0
scalar OsgEarthNet.uav[21] simulationTime 259200
scalar OsgEarthNet.uav[22] utilizationSecMission 27962.816867686
scalar OsgEarthNet.uav[22] utilizationSecMaintenance 19151.326191053
scalar OsgEarthNet.uav[22] utilizationSecCharge 171791.35800009
scalar OsgEarthNet.uav[22] utilizationSecIdle 40294.497941176
scalar OsgEarthNet.uav[22] utilizationEnergyMission 129698.37039948
scalar OsgEarthNet.uav[22] utilizationEnergyMaintenance 88808.021144867
scalar OsgEarthNet.uav[22] utilizationEnergyCharge 216122.32617188
scalar OsgEarthNet.uav[22] utilizationEnergyOverdrawMission 0
scalar OsgEarthNet.uav[22] utilizationEnergyOverdrawMaintenance 0
scalar OsgEarthNet.uav[22] utilizationCountMissions 48
scalar OsgEarthNet.uav[22] utilizationCountManeuversMission 460
scalar OsgEarthNet.uav[22] utilizationCountManeuversMaintenance 96
scalar OsgEarthNet.uav[22] utilizationCountChargeState 48
scalar OsgEarthNet.uav[22] utilizationCountOverdrawnAfterMission 0
scalar OsgEarthNet.uav[22] utilizationCountIdleState 48
scalar OsgEarthNet.uav[22] utilizationFail 0
scalar OsgEarthNet.uav[22] simulationTime 259200
scalar OsgEarthNet.uav[23] utilizationSecMission 645.47405733167
scalar OsgEarthNet.uav[23] utilizationSecMaintenance 393.86419216954
scalar OsgEarthNet.uav[23] utilizationSecCharge 3780
scalar OsgEarthNet.uav[23] utilizationSecIdle 254380.6607505
scalar OsgEarthNet.uav[23] utilizationEnergyMission 3140.2225646973
scalar OsgEarthNet.uav[23] utilizationEnergyMaintenance 1817.764793396
scalar OsgEarthNet.uav[23] utilizationEnergyCharge 4789.9106445312
scalar OsgEarthNet.uav[23] utilizationEnergyOverdrawMission 0
scalar OsgEarthNet.uav[23] utilizationEnergyOverdrawMaintenance 0
scalar OsgEarthNet.uav[23] utilizationCountMissions 1
scalar OsgEarthNet.uav[23] utilizationCountManeuversMission 10
scalar OsgEarthNet.uav[23] utilizationCountManeuversMaintenance 2
scalar OsgEarthNet.uav[23] utilizationCountChargeState 1
scalar OsgEarthNet.uav[23] utilizationCountOverdrawnAfterMission 0
scalar OsgEarthNet.uav[23] utilizationCountIdleState 2
scalar OsgEarthNet.uav[23] utilizationFail 0
scalar OsgEarthNet.uav[23] simulationTime 259200
scalar OsgEarthNet.uav[24] utilizationSecMission 30032.426566139
scalar OsgEarthNet.uav[24] utilizationSecMaintenance 17209.319394148
scalar OsgEarthNet.uav[24] utilizationSecCharge 172210.93793871
scalar OsgEarthNet.uav[24] utilizationSecIdle 39747.315101
scalar OsgEarthNet.uav[24] utilizationEnergyMission 138732.30999374
scalar OsgEarthNet.uav[24] utilizationEnergyMaintenance 78727.277095795
scalar OsgEarthNet.uav[24] utilizationEnergyCharge 216610.37304688
scalar OsgEarthNet.uav[24] utilizationEnergyOverdrawMission 0
scalar OsgEarthNet.uav[24] utilizationEnergyOverdrawMaintenance 0
scalar OsgEarthNet.uav[24] utilizationCountMissions 48
scalar OsgEarthNet.uav[24] utilizationCountManeuversMission 479
scalar OsgEarthNet.uav[24] utilizationCountManeuversMaintenance 96
scalar OsgEarthNet.uav[24] utilizationCountChargeState 48
scalar OsgEarthNet.uav[24] utilizationCountOverdrawnAfterMission 0
scalar OsgEarthNet.uav[24] utilizationCountIdleState 48
scalar OsgEarthNet.uav[24] utilizationFail 0
scalar OsgEarthNet.uav[24] simulationTime 259200
scalar OsgEarthNet.uav[25] utilizationSecMission 27613.508423201
scalar OsgEarthNet.uav[25] utilizationSecMaintenance 19856.571839369
scalar OsgEarthNet.uav[25] utilizationSecCharge 173880.69912351
scalar OsgEarthNet.uav[25] utilizationSecIdle 37849.219613916
scalar OsgEarthNet.uav[25] utilizationEnergyMission 126226.65481186
scalar OsgEarthNet.uav[25] utilizationEnergyMaintenance 93069.694133759
scalar OsgEarthNet.uav[25] utilizationEnergyCharge 217336.87890625
scalar OsgEarthNet.uav[25] utilizationEnergyOverdrawMission 0
scalar OsgEarthNet.uav[25] utilizationEnergyOverdrawMaintenance 0
scalar OsgEarthNet.uav[25] utilizationCountMissions 49
scalar OsgEarthNet.uav[25] utilizationCountManeuversMission 467
scalar OsgEarthNet.uav[25] utilizationCountManeuversMaintenance 98
scalar OsgEarthNet.uav[25] utilizationCountChargeState 49
scalar OsgEarthNet.uav[25] utilizationCountOverdrawnAfterMission 0
scalar OsgEarthNet.uav[25] utilizationCountIdleState 49
scalar OsgEarthNet.uav[25] utilizationFail 0
scalar OsgEarthNet.uav[25] simulationTime 259200
scalar OsgEarthNet.uav[26] utilizationSecMission 25234.299807175
scalar OsgEarthNet.uav[26] utilizationSecMaintenance 17650.452783597
scalar OsgEarthNet.uav[26] utilizationSecCharge 156011.54521885
scalar OsgEarthNet.uav[26] utilizationSecIdle 60303.701190382
scalar OsgEarthNet.uav[26] utilizationEnergyMission 117119.77610016
scalar OsgEarthNet.uav[26] utilizationEnergyMaintenance 82290.702213287
scalar OsgEarthNet.uav[26] utilizationEnergyCharge 197217.76855469
scalar OsgEarthNet.uav[26] utilizationEnergyOverdrawMission 0
scalar OsgEarthNet.uav[26] utilizationEnergyOverdrawMaintenance 0
scalar OsgEarthNet.uav[26] utilizationCountMissions 43
scalar OsgEarthNet.uav[26] utilizationCountManeuversMission 401
scalar OsgEarthNet.uav[26] utilizationCountManeuversMaintenance 86
scalar OsgEarthNet.uav[26] utilizationCountChargeState 43
scalar OsgEarthNet.uav[26] utilizationCountOverdrawnAfterMission 0
scalar OsgEarthNet.uav[26] utilizationCountIdleState 43
scalar OsgEarthNet.uav[26] utilizationFail 0
scalar OsgEarthNet.uav[26] simulationTime 259200
scalar OsgEarthNet.uav[27] utilizationSecMission 27636.497974661
scalar OsgEarthNet.uav[27] utilizationSecMaintenance 18701.404024803
scalar OsgEarthNet.uav[27] utilizationSecCharge 168962.07870284
scalar OsgEarthNet.uav[27] utilizationSecIdle 43900.018297699
scalar OsgEarthNet.uav[27] utilizationEnergyMission 127561.58093262
scalar OsgEarthNet.uav[27] utilizationEnergyMaintenance 86425.863407135
scalar OsgEarthNet.uav[27] utilizationEnergyCharge 212659.78295898
scalar OsgEarthNet.uav[27] utilizationEnergyOverdrawMission 0
scalar OsgEarthNet.uav[27] utilizationEnergyOverdrawMaintenance 0
scalar OsgEarthNet.uav[27] utilizationCountMissions 47
scalar OsgEarthNet.uav[27] utilizationCountManeuversMission 455
scalar OsgEarthNet.uav[27] utilizationCountManeuversMaintenance 94
scalar OsgEarthNet.uav[27] utilizationCountChargeState 47
scalar OsgEarthNet.uav[27] utilizationCountOverdrawnAfterMission 0
scalar OsgEarthNet.uav[27] utilizationCountIdleState 47
scalar OsgEarthNet.uav[27] utilizationFail 0
scalar OsgEarthNet.uav[27] simulationTime 259200
scalar OsgEarthNet.uav[28] utilizationSecMission 15990.933755032
scalar OsgEarthNet.uav[28] utilizationSecMaintenance 6711.7098706904
scalar OsgEarthNet.uav[28] utilizationSecCharge 83650
scalar OsgEarthNet.uav[28] utilizationSecIdle 152847.35537428
scalar OsgEarthNet.uav[28] utilizationEnergyMission 74108.674201965
scalar OsgEarthNet.uav[28] utilizationEnergyMaintenance 31040.764865875
scalar OsgEarthNet.uav[28] utilizationEnergyCharge 104692.38720703
scalar OsgEarthNet.uav[28] utilizationEnergyOverdrawMission 0
scalar OsgEarthNet.uav[28] utilizationEnergyOverdrawMaintenance 0
scalar OsgEarthNet.uav[28] utilizationCountMissions 23
scalar OsgEarthNet.uav[28] utilizationCountManeuversMission 259
scalar OsgEarthNet.uav[28] utilizationCountManeuversMaintenance 46
scalar OsgEarthNet.uav[28] utilizationCountChargeState 23
scalar OsgEarthNet.uav[28] utilizationCountOverdrawnAfterMission 0
scalar OsgEarthNet.uav[28] utilizationCountIdleState 24
scalar OsgEarthNet.uav[28] utilizationFail 0
scalar OsgEarthNet.uav[28] simulationTime 259200
scalar OsgEarthNet.uav[29] utilizationSecMission 27292.175277399
scalar OsgEarthNet.uav[29] utilizationSecMaintenance 17267.69512009
scalar OsgEarthNet.uav[29] utilizationSecCharge 162117.05356734
scalar OsgEarthNet.uav[29] utilizationSecIdle 52523.075035171
scalar OsgEarthNet.uav[29] utilizationEnergyMission 125724.20820236
scalar OsgEarthNet.uav[29] utilizationEnergyMaintenance 79384.892448425
scalar OsgEarthNet.uav[29] utilizationEnergyCharge 204442.30444336
scalar OsgEarthNet.uav[29] utilizationEnergyOverdrawMission 0
scalar OsgEarthNet.uav[29] utilizationEnergyOverdrawMaintenance 0
scalar OsgEarthNet.uav[29] utilizationCountMissions 45
scalar OsgEarthNet.uav[29] utilizationCountManeuversMission 448
scalar OsgEarthNet.uav[29] utilizationCountManeuversMaintenance 90
scalar OsgEarthNet.uav[29] utilizationCountChargeState 45
scalar OsgEarthNet.uav[29] utilizationCountOverdrawnAfterMission 0
scalar OsgEarthNet.uav[29] utilizationCountIdleState 45
scalar OsgEarthNet.uav[29] utilizationFail 0
scalar OsgEarthNet.uav[29] simulationTime 259200
scalar OsgEarthNet.uav[30] utilizationSecMission 29282.293406015
scalar OsgEarthNet.uav[30] utilizationSecMaintenance 18877.240819505
scalar OsgEarthNet.uav[30] utilizationSecCharge 174914.44317195
scalar OsgEarthNet.uav[30] utilizationSecIdle 36126.021602526
scalar OsgEarthNet.uav[30] utilizationEnergyMission 134751.49183655
scalar OsgEarthNet.uav[30] utilizationEnergyMaintenance 88822.899539948
scalar OsgEarthNet.uav[30] utilizationEnergyCharge 219207.07110596
scalar OsgEarthNet.uav[30] utilizationEnergyOverdrawMission 0
scalar OsgEarthNet.uav[30] utilizationEnergyOverdrawMaintenance 0
scalar OsgEarthNet.uav[30] utilizationCountMissions 49
scalar OsgEarthNet.uav[30] utilizationCountManeuversMission 486
scalar OsgEarthNet.uav[30] utilizationCountManeuversMaintenance 98
scalar OsgEarthNet.uav[30] utilizationCountChargeState 49
scalar OsgEarthNet.uav[30] utilizationCountOverdrawnAfterMission 0
scalar OsgEarthNet.uav[30] utilizationCountIdleState 49
scalar OsgEarthNet.uav[30] utilizationFail 0
scalar OsgEarthNet.uav[30] simulationTime 259200
scalar OsgEarthNet.uav[31] utilizationSecMission 26255.289625102
scalar OsgEarthNet.uav[31] utilizationSecMaintenance 18351.164441408
scalar OsgEarthNet.uav[31] utilizationSecCharge 162059.78591805
scalar OsgEarthNet.uav[31] utilizationSecIdle 52533.759015445
scalar OsgEarthNet.uav[31] utilizationEnergyMission 121401.77838898
scalar OsgEarthNet.uav[31] utilizationEnergyMaintenance 85834.477977753
scalar OsgEarthNet.uav[31] utilizationEnergyCharge 202651.94415283
scalar OsgEarthNet.uav[31] utilizationEnergyOverdrawMission 0
scalar OsgEarthNet.uav[31] utilizationEnergyOverdrawMaintenance 0
scalar OsgEarthNet.uav[31] utilizationCountMissions 46
scalar OsgEarthNet.uav[31] utilizationCountManeuversMission 440
scalar OsgEarthNet.uav[31] utilizationCountManeuversMaintenance 92
scalar OsgEarthNet.uav[31] utilizationCountChargeState 46
scalar OsgEarthNet.uav[31] utilizationCountOverdrawnAfterMission 0
scalar OsgEarthNet.uav[31] utilizationCountIdleState 46
scalar OsgEarthNet.uav[31] utilizationFail 0
scalar OsgEarthNet.uav[31] simulationTime 259200
scalar OsgEarthNet.uav[32] utilizationSecMission 29775.114709672
scalar OsgEarthNet.uav[32] utilizationSecMaintenance 18647.126563972
scalar OsgEarthNet.uav[32] utilizationSecCharge 179155.75772636
scalar OsgEarthNet.uav[32] utilizationSecIdle 31622
scalar OsgEarthNet.uav[32] utilizationEnergyMission 139382.30052197
scalar OsgEarthNet.uav[32] utilizationEnergyMaintenance 86556.34778595
scalar OsgEarthNet.uav[32] utilizationEnergyCharge 225409.28955078
scalar OsgEarthNet.uav[32] utilizationEnergyOverdrawMission 0
scalar OsgEarthNet.uav[32] utilizationEnergyOverdrawMaintenance 0
scalar OsgEarthNet.uav[32] utilizationCountMissions 49
scalar OsgEarthNet.uav[32] utilizationCountManeuversMission 500
scalar OsgEarthNet.uav[32] utilizationCountManeuversMaintenance 97
scalar OsgEarthNet.uav[32] utilizationCountChargeState 49
scalar OsgEarthNet.uav[32] utilizationCountOverdrawnAfterMission 0
scalar OsgEarthNet.uav[32] utilizationCountIdleState 49
scalar OsgEarthNet.uav[32] utilizationFail 0
scalar OsgEarthNet.uav[32] simulationTime 259200
scalar OsgEarthNet.uav[33] utilizationSecMission 623.68863475643
scalar OsgEarthNet.uav[33] utilizationSecMaintenance 394.94199877579
scalar OsgEarthNet.uav[33] utilizationSecCharge 3880
scalar OsgEarthNet.uav[33] utilizationSecIdle 254301.36836647
scalar OsgEarthNet.uav[33] utilizationEnergyMission 2997.7577667236
scalar OsgEarthNet.uav[33] utilizationEnergyMaintenance 1894.6498336792
scalar OsgEarthNet.uav[33] utilizationEnergyCharge 4963.2612304688
scalar OsgEarthNet.uav[33] utilizationEnergyOverdrawMission 0
scalar OsgEarthNet.uav[33] utilizationEnergyOverdrawMaintenance 0
scalar OsgEarthNet.uav[33] utilizationCountMissions 1
scalar OsgEarthNet.uav[33] utilizationCountManeuversMission 10
scalar OsgEarthNet.uav[33] utilizationCountManeuversMaintenance 2
scalar OsgEarthNet.uav[33] utilizationCountChargeState 1
scalar OsgEarthNet.uav[33] utilizationCountOverdrawnAfterMission 0
scalar OsgEarthNet.uav[33] utilizationCountIdleState 2
scalar OsgEarthNet.uav[33] utilizationFail 0
scalar OsgEarthNet.uav[33] simulationTime 259200
scalar OsgEarthNet.uav[34] utilizationSecMission 21999.456477533
scalar OsgEarthNet.uav[34] utilizationSecMaintenance 15660.979941791
scalar OsgEarthNet.uav[34] utilizationSecCharge 135874.77216791
scalar OsgEarthNet.uav[34] utilizationSecIdle 85664.790412768
scalar OsgEarthNet.uav[34] utilizationEnergyMission 101170.07261658
scalar OsgEarthNet.uav[34] utilizationEnergyMaintenance 71974.956703186
scalar OsgEarthNet.uav[34] utilizationEnergyCharge 171184.43347168
scalar OsgEarthNet.uav[34] utilizationEnergyOverdrawMission 0
scalar OsgEarthNet.uav[34] utilizationEnergyOverdrawMaintenance 0
scalar OsgEarthNet.uav[34] utilizationCountMissions 38
scalar OsgEarthNet.uav[34] utilizationCountManeuversMission 363
scalar OsgEarthNet.uav[34] utilizationCountManeuversMaintenance 76
scalar OsgEarthNet.uav[34] utilizationCountChargeState 38
scalar OsgEarthNet.uav[34] utilizationCountOverdrawnAfterMission 0
scalar OsgEarthNet.uav[34] utilizationCountIdleState 38
scalar OsgEarthNet.uav[34] utilizationFail 0
scalar OsgEarthNet.uav[34] simulationTime 259200
scalar OsgEarthNet.uav[35] utilizationSecMission 31472.281094387
scalar OsgEarthNet.uav[35] utilizationSecMaintenance 17633.865836837
scalar OsgEarthNet.uav[35] utilizationSecCharge 177701.85206878
scalar OsgEarthNet.uav[35] utilizationSecIdle 32392
scalar OsgEarthNet.uav[35] utilizationEnergyMission 144999.39955512
scalar OsgEarthNet.uav[35] utilizationEnergyMaintenance 79757.495555878
scalar OsgEarthNet.uav[35] utilizationEnergyCharge 223627.41601562
scalar OsgEarthNet.uav[35] utilizationEnergyOverdrawMission 0
scalar OsgEarthNet.uav[35] utilizationEnergyOverdrawMaintenance 0
scalar OsgEarthNet.uav[35] utilizationCountMissions 49
scalar OsgEarthNet.uav[35] utilizationCountManeuversMission 511
scalar OsgEarthNet.uav[35] utilizationCountManeuversMaintenance 97
scalar OsgEarthNet.uav[35] utilizationCountChargeState 49
scalar OsgEarthNet.uav[35] utilizationCountOverdrawnAfterMission 0
scalar OsgEarthNet.uav[35] utilizationCountIdleState 49
scalar OsgEarthNet.uav[35] utilizationFail 0
scalar OsgEarthNet.uav[35] simulationTime 259200
scalar OsgEarthNet.uav[36] utilizationSecMission 29640.665214478
scalar OsgEarthNet.uav[36] utilizationSecMaintenance 18622.409560465
scalar OsgEarthNet.uav[36] utilizationSecCharge 172996.35381073
scalar OsgEarthNet.uav[36] utilizationSecIdle 37940.570414324
scalar OsgEarthNet.uav[36] utilizationEnergyMission 136907.98479462
scalar OsgEarthNet.uav[36] utilizationEnergyMaintenance 84753.728408814
scalar OsgEarthNet.uav[36] utilizationEnergyCharge 217918.38635254
scalar OsgEarthNet.uav[36] utilizationEnergyOverdrawMission 0
scalar OsgEarthNet.uav[36] utilizationEnergyOverdrawMaintenance 0
scalar OsgEarthNet.uav[36] utilizationCountMissions 48
scalar OsgEarthNet.uav[36] utilizationCountManeuversMission 471
scalar OsgEarthNet.uav[36] utilizationCountManeuversMaintenance 96
scalar OsgEarthNet.uav[36] utilizationCountChargeState 48
scalar OsgEarthNet.uav[36] utilizationCountOverdrawnAfterMission 0
scalar OsgEarthNet.uav[36] utilizationCountIdleState 48
scalar OsgEarthNet.uav[36] utilizationFail 0
scalar OsgEarthNet.uav[36] simulationTime 259200
scalar OsgEarthNet.uav[37] utilizationSecMission 533.25626237336
scalar OsgEarthNet.uav[37] utilizationSecMaintenance 451.14699917938
scalar OsgEarthNet.uav[37] utilizationSecCharge 3520
scalar OsgEarthNet.uav[37] utilizationSecIdle 254695.59573845
scalar OsgEarthNet.uav[37] utilizationEnergyMission 2165.2033615112
scalar OsgEarthNet.uav[37] utilizationEnergyMaintenance 2155.7299461365
scalar OsgEarthNet.uav[37] utilizationEnergyCharge 4350.2875976562
scalar OsgEarthNet.uav[37] utilizationEnergyOverdrawMission 0
scalar OsgEarthNet.uav[37] utilizationEnergyOverdrawMaintenance 0
scalar OsgEarthNet.uav[37] utilizationCountMissions 1
scalar OsgEarthNet.uav[37] utilizationCountManeuversMission 8
scalar OsgEarthNet.uav[37] utilizationCountManeuversMaintenance 2
scalar OsgEarthNet.uav[37] utilizationCountChargeState 1
scalar OsgEarthNet.uav[37] utilizationCountOverdrawnAfterMission 0
scalar OsgEarthNet.uav[37] utilizationCountIdleState 2
scalar OsgEarthNet.uav[37] utilizationFail 0
scalar OsgEarthNet.uav[37] simulationTime 259200
scalar OsgEarthNet.uav[38] utilizationSecMission 1737.9263537874
scalar OsgEarthNet.uav[38] utilizationSecMaintenance 1217.2911758455
scalar OsgEarthNet.uav[38] utilizationSecCharge 10820
scalar OsgEarthNet.uav[38] utilizationSecIdle 245424.78147037
scalar OsgEarthNet.uav[38] utilizationEnergyMission 8050.7331390381
scalar OsgEarthNet.uav[38] utilizationEnergyMaintenance 5436.7734107971
scalar OsgEarthNet.uav[38] utilizationEnergyCharge 13487.502441406
scalar OsgEarthNet.uav[38] utilizationEnergyOverdrawMission 0
scalar OsgEarthNet.uav[38] utilizationEnergyOverdrawMaintenance 0
scalar OsgEarthNet.uav[38] utilizationCountMissions 3
scalar OsgEarthNet.uav[38] utilizationCountManeuversMission 29
scalar OsgEarthNet.uav[38] utilizationCountManeuversMaintenance 6
scalar OsgEarthNet.uav[38] utilizationCountChargeState 3
scalar OsgEarthNet.uav[38] utilizationCountOverdrawnAfterMission 0
scalar OsgEarthNet.uav[38] utilizationCountIdleState 4
scalar OsgEarthNet.uav[38] utilizationFail 0
scalar OsgEarthNet.uav[38] simulationTime 259200
scalar OsgEarthNet.uav[39] utilizationSecMission 28233.083558357
scalar OsgEarthNet.uav[39] utilizationSecMaintenance 20240.296763503
scalar OsgEarthNet.uav[39] utilizationSecCharge 177990
scalar OsgEarthNet.uav[39] utilizationSecIdle 32736.61867814
scalar OsgEarthNet.uav[39] utilizationEnergyMission 130363.75793457
scalar OsgEarthNet.uav[39] utilizationEnergyMaintenance 93443.766849689
scalar OsgEarthNet.uav[39] utilizationEnergyCharge 222903.75585938
scalar OsgEarthNet.uav[39] utilizationEnergyOverdrawMission 0
scalar OsgEarthNet.uav[39] utilizationEnergyOverdrawMaintenance 0
scalar OsgEarthNet.uav[39] utilizationCountMissions 49
scalar OsgEarthNet.uav[39] utilizationCountManeuversMission 457
scalar OsgEarthNet.uav[39] utilizationCountManeuversMaintenance 99
scalar OsgEarthNet.uav[39] utilizationCountChargeState 49
scalar OsgEarthNet.uav[39] utilizationCountOverdrawnAfterMission 0
scalar OsgEarthNet.uav[39] utilizationCountIdleState 50
scalar OsgEarthNet.uav[39] utilizationFail 0
scalar OsgEarthNet.uav[39] simulationTime 259200
scalar OsgEarthNet.uav[40] utilizationSecMission 15864.099615798
scalar OsgEarthNet.uav[40] utilizationSecMaintenance 12148.607877759
scalar OsgEarthNet.uav[40] utilizationSecCharge 102266.28348179
scalar OsgEarthNet.uav[40] utilizationSecIdle 128921.00802465
scalar OsgEarthNet.uav[40] utilizationEnergyMission 74139.476615906
scalar OsgEarthNet.uav[40] utilizationEnergyMaintenance 56819.649333954
scalar OsgEarthNet.uav[40] utilizationEnergyCharge 128370.08276367
scalar OsgEarthNet.uav[40] utilizationEnergyOverdrawMission 0
scalar OsgEarthNet.uav[40] utilizationEnergyOverdrawMaintenance 0
scalar OsgEarthNet.uav[40] utilizationCountMissions 29
scalar OsgEarthNet.uav[40] utilizationCountManeuversMission 257
scalar OsgEarthNet.uav[40] utilizationCountManeuversMaintenance 58
scalar OsgEarthNet.uav[40] utilizationCountChargeState 29
scalar OsgEarthNet.uav[40] utilizationCountOverdrawnAfterMission 0
scalar OsgEarthNet.uav[40] utilizationCountIdleState 29
scalar OsgEarthNet.uav[40] utilizationFail 0
scalar OsgEarthNet.uav[40] simulationTime 259200
scalar OsgEarthNet.uav[41] utilizationSecMission 7479.1498894535
scalar OsgEarthNet.uav[41] utilizationSecMaintenance 5875.8287062818
scalar OsgEarthNet.uav[41] utilizationSecCharge 49820
scalar OsgEarthNet.uav[41] utilizationSecIdle 196025.02040426
scalar OsgEarthNet.uav[41] utilizationEnergyMission 34624.226455688
scalar OsgEarthNet.uav[41] utilizationEnergyMaintenance 27833.195270538
scalar OsgEarthNet.uav[41] utilizationEnergyCharge 62225.387451172
scalar OsgEarthNet.uav[41] utilizationEnergyOverdrawMission 0
scalar OsgEarthNet.uav[41] utilizationEnergyOverdrawMaintenance 0
scalar OsgEarthNet.uav[41] utilizationCountMissions 14
scalar OsgEarthNet.uav[41] utilizationCountManeuversMission 126
scalar OsgEarthNet.uav[41] utilizationCountManeuversMaintenance 28
scalar OsgEarthNet.uav[41] utilizationCountChargeState 14
scalar OsgEarthNet.uav[41] utilizationCountOverdrawnAfterMission 0
scalar OsgEarthNet.uav[41] utilizationCountIdleState 14
scalar OsgEarthNet.uav[41] utilizationFail 0
scalar OsgEarthNet.uav[41] simulationTime 259200
scalar OsgEarthNet.uav[42] utilizationSecMission 22607.088715988
scalar OsgEarthNet.uav[42] utilizationSecMaintenance 14153.471429281
scalar OsgEarthNet.uav[42] utilizationSecCharge 136510
scalar OsgEarthNet.uav[42] utilizationSecIdle 85929.43885473
scalar OsgEarthNet.uav[42] utilizationEnergyMission 105711.49583435
scalar OsgEarthNet.uav[42] utilizationEnergyMaintenance 66544.226799011
scalar OsgEarthNet.uav[42] utilizationEnergyCharge 171895.32299805
scalar OsgEarthNet.uav[42] utilizationEnergyOverdrawMission 0
scalar OsgEarthNet.uav[42] utilizationEnergyOverdrawMaintenance 0
scalar OsgEarthNet.uav[42] utilizationCountMissions 37
scalar OsgEarthNet.uav[42] utilizationCountManeuversMission 371
scalar OsgEarthNet.uav[42] utilizationCountManeuversMaintenance 74
scalar OsgEarthNet.uav[42] utilizationCountChargeState 37
scalar OsgEarthNet.uav[42] utilizationCountOverdrawnAfterMission 0
scalar OsgEarthNet.uav[42] utilizationCountIdleState 38
scalar OsgEarthNet.uav[42] utilizationFail 0
scalar OsgEarthNet.uav[42] simulationTime 259200
scalar OsgEarthNet.uav[43] utilizationSecMission 14703.87129398
scalar OsgEarthNet.uav[43] utilizationSecMaintenance 10253.571499321
scalar OsgEarthNet.uav[43] utilizationSecCharge 91210
scalar OsgEarthNet.uav[43] utilizationSecIdle 143032.5562067
scalar OsgEarthNet.uav[43] utilizationEnergyMission 67696.524916771
scalar OsgEarthNet.uav[43] utilizationEnergyMaintenance 48158.413021088
scalar OsgEarthNet.uav[43] utilizationEnergyCharge 114198.90966797
scalar OsgEarthNet.uav[43] utilizationEnergyOverdrawMission 0
scalar OsgEarthNet.uav[43] utilizationEnergyOverdrawMaintenance 0
scalar OsgEarthNet.uav[43] utilizationCountMissions 25
scalar OsgEarthNet.uav[43] utilizationCountManeuversMission 233
scalar OsgEarthNet.uav[43] utilizationCountManeuversMaintenance 51
scalar OsgEarthNet.uav[43] utilizationCountChargeState 25
scalar OsgEarthNet.uav[43] utilizationCountOverdrawnAfterMission 0
scalar OsgEarthNet.uav[43] utilizationCountIdleState 26
scalar OsgEarthNet.uav[43] utilizationFail 0
scalar OsgEarthNet.uav[43] simulationTime 259200
scalar OsgEarthNet.uav[44] utilizationSecMission 25226.004291216
scalar OsgEarthNet.uav[44] utilizationSecMaintenance 19062.302677917
scalar OsgEarthNet.uav[44] utilizationSecCharge 162055.34580866
scalar OsgEarthNet.uav[44] utilizationSecIdle 52856.346222205
scalar OsgEarthNet.uav[44] utilizationEnergyMission 117113.33302307
scalar OsgEarthNet.uav[44] utilizationEnergyMaintenance 88400.621788025
scalar OsgEarthNet.uav[44] utilizationEnergyCharge 204568.89892578
scalar OsgEarthNet.uav[44] utilizationEnergyOverdrawMission 0
scalar OsgEarthNet.uav[44] utilizationEnergyOverdrawMaintenance 0
scalar OsgEarthNet.uav[44] utilizationCountMissions 45
scalar OsgEarthNet.uav[44] utilizationCountManeuversMission 398
scalar OsgEarthNet.uav[44] utilizationCountManeuversMaintenance 90
scalar OsgEarthNet.uav[44] utilizationCountChargeState 45
scalar OsgEarthNet.uav[44] utilizationCountOverdrawnAfterMission 0
scalar OsgEarthNet.uav[44] utilizationCountIdleState 44
scalar OsgEarthNet.uav[44] utilizationFail 0
scalar OsgEarthNet.uav[44] simulationTime 259200
scalar OsgEarthNet.uav[45] utilizationSecMission 27840.044444881
scalar OsgEarthNet.uav[45] utilizationSecMaintenance 18213.460928722
scalar OsgEarthNet.uav[45] utilizationSecCharge 164793.79095868
scalar OsgEarthNet.uav[45] utilizationSecIdle 48352.702667718
scalar OsgEarthNet.uav[45] utilizationEnergyMission 128601.18934631
scalar OsgEarthNet.uav[45] utilizationEnergyMaintenance 83960.258934021
scalar OsgEarthNet.uav[45] utilizationEnergyCharge 207137.84503174
scalar OsgEarthNet.uav[45] utilizationEnergyOverdrawMission 0
scalar OsgEarthNet.uav[45] utilizationEnergyOverdrawMaintenance 0
scalar OsgEarthNet.uav[45] utilizationCountMissions 46
scalar OsgEarthNet.uav[45] utilizationCountManeuversMission 470
scalar OsgEarthNet.uav[45] utilizationCountManeuversMaintenance 92
scalar OsgEarthNet.uav[45] utilizationCountChargeState 46
scalar OsgEarthNet.uav[45] utilizationCountOverdrawnAfterMission 0
scalar OsgEarthNet.uav[45] utilizationCountIdleState 46
scalar OsgEarthNet.uav[45] utilizationFail 0
scalar OsgEarthNet.uav[45] simulationTime 259200
scalar OsgEarthNet.uav[46] utilizationSecMission 25428.915957969
scalar OsgEarthNet.uav[46] utilizationSecMaintenance 17362.984641167
scalar OsgEarthNet.uav[46] utilizationSecCharge 158516.90183133
scalar OsgEarthNet.uav[46] utilizationSecIdle 57891.196569536
scalar OsgEarthNet.uav[46] utilizationEnergyMission 119448.26228333
scalar OsgEarthNet.uav[46] utilizationEnergyMaintenance 80907.933444977
scalar OsgEarthNet.uav[46] utilizationEnergyCharge 199941.265625
scalar OsgEarthNet.uav[46] utilizationEnergyOverdrawMission 0
scalar OsgEarthNet.uav[46] utilizationEnergyOverdrawMaintenance 0
scalar OsgEarthNet.uav[46] utilizationCountMissions 44
scalar OsgEarthNet.uav[46] utilizationCountManeuversMission 430
scalar OsgEarthNet.uav[46] utilizationCountManeuversMaintenance 88
scalar OsgEarthNet.uav[46] utilizationCountChargeState 44
scalar OsgEarthNet.uav[46] utilizationCountOverdrawnAfterMission 0
scalar OsgEarthNet.uav[46] utilizationCountIdleState 43
scalar OsgEarthNet.uav[46] utilizationFail 0
scalar OsgEarthNet.uav[46] simulationTime 259200
scalar OsgEarthNet.uav[47] utilizationSecMission 27911.488919749
scalar OsgEarthNet.uav[47] utilizationSecMaintenance 19391.423238673
scalar OsgEarthNet.uav[47] utilizationSecCharge 172766.03102283
scalar OsgEarthNet.uav[47] utilizationSecIdle 39131.055818747
scalar OsgEarthNet.uav[47] utilizationEnergyMission 127194.74067688
scalar OsgEarthNet.uav[47] utilizationEnergyMaintenance 91199.780162811
scalar OsgEarthNet.uav[47] utilizationEnergyCharge 217737.98242188
scalar OsgEarthNet.uav[47] utilizationEnergyOverdrawMission 0
scalar OsgEarthNet.uav[47] utilizationEnergyOverdrawMaintenance 0
scalar OsgEarthNet.uav[47] utilizationCountMissions 48
scalar OsgEarthNet.uav[47] utilizationCountManeuversMission 459
scalar OsgEarthNet.uav[47] utilizationCountManeuversMaintenance 96
scalar OsgEarthNet.uav[47] utilizationCountChargeState 48
scalar OsgEarthNet.uav[47] utilizationCountOverdrawnAfterMission 0
scalar OsgEarthNet.uav[47] utilizationCountIdleState 46
scalar OsgEarthNet.uav[47] utilizationFail 0
scalar OsgEarthNet.uav[47] simulationTime 259200
scalar OsgEarthNet.uav[48] utilizationSecMission 27585.202744298
scalar OsgEarthNet.uav[48] utilizationSecMaintenance 17288.388390324
scalar OsgEarthNet.uav[48] utilizationSecCharge 162808.95760135
scalar OsgEarthNet.uav[48] utilizationSecIdle 51517.450264031
scalar OsgEarthNet.uav[48] utilizationEnergyMission 126761.96756744
scalar OsgEarthNet.uav[48] utilizationEnergyMaintenance 80096.772052765
scalar OsgEarthNet.uav[48] utilizationEnergyCharge 205975.49951172
scalar OsgEarthNet.uav[48] utilizationEnergyOverdrawMission 0
scalar OsgEarthNet.uav[48] utilizationEnergyOverdrawMaintenance 0
scalar OsgEarthNet.uav[48] utilizationCountMissions 45
scalar OsgEarthNet.uav[48] utilizationCountManeuversMission 445
scalar OsgEarthNet.uav[48] utilizationCountManeuversMaintenance 90
scalar OsgEarthNet.uav[48] utilizationCountChargeState 45
scalar OsgEarthNet.uav[48] utilizationCountOverdrawnAfterMission 0
scalar OsgEarthNet.uav[48] utilizationCountIdleState 42
scalar OsgEarthNet.uav[48] utilizationFail 0
scalar OsgEarthNet.uav[48] simulationTime 259200
scalar OsgEarthNet.uav[49] utilizationSecMission 24881.831821912
scalar OsgEarthNet.uav[49] utilizationSecMaintenance 19213.873292242
scalar OsgEarthNet.uav[49] utilizationSecCharge 159202.4978655
scalar OsgEarthNet.uav[49] utilizationSecIdle 55901.79602035
scalar OsgEarthNet.uav[49] utilizationEnergyMission 114955.83702087
scalar OsgEarthNet.uav[49] utilizationEnergyMaintenance 89884.789180756
scalar OsgEarthNet.uav[49] utilizationEnergyCharge 200714.72198486
scalar OsgEarthNet.uav[49] utilizationEnergyOverdrawMission 0
scalar OsgEarthNet.uav[49] utilizationEnergyOverdrawMaintenance 0
scalar OsgEarthNet.uav[49] utilizationCountMissions 45
scalar OsgEarthNet.uav[49] utilizationCountManeuversMission 410
scalar OsgEarthNet.uav[49] utilizationCountManeuversMaintenance 90
scalar OsgEarthNet.uav[49] utilizationCountChargeState 45
scalar OsgEarthNet.uav[49] utilizationCountOverdrawnAfterMission 0
scalar OsgEarthNet.uav[49] utilizationCountIdleState 40
scalar OsgEarthNet.uav[49] utilizationFail 0
scalar OsgEarthNet.uav[49] simulationTime 259200
scalar OsgEarthNet.uav[50] utilizationSecMission 28514.070127844
scalar OsgEarthNet.uav[50] utilizationSecMaintenance 20493.567983149
scalar OsgEarthNet.uav[50] utilizationSecCharge 178820.36088901
scalar OsgEarthNet.uav[50] utilizationSecIdle 31372
scalar OsgEarthNet.uav[50] utilizationEnergyMission 132759.22555542
scalar OsgEarthNet.uav[50] utilizationEnergyMaintenance 95420.332542419
scalar OsgEarthNet.uav[50] utilizationEnergyCharge 228186.83642578
scalar OsgEarthNet.uav[50] utilizationEnergyOverdrawMission 0
scalar OsgEarthNet.uav[50] utilizationEnergyOverdrawMaintenance 0
scalar OsgEarthNet.uav[50] utilizationCountMissions 49
scalar OsgEarthNet.uav[50] utilizationCountManeuversMission 460
scalar OsgEarthNet.uav[50] utilizationCountManeuversMaintenance 97
scalar OsgEarthNet.uav[50] utilizationCountChargeState 49
scalar OsgEarthNet.uav[50] utilizationCountOverdrawnAfterMission 0
scalar OsgEarthNet.uav[50] utilizationCountIdleState 41
scalar OsgEarthNet.uav[50] utilizationFail 0
scalar OsgEarthNet.uav[50] simulationTime 259200
scalar OsgEarthNet.uav[51] utilizationSecMission 28886.30932788
scalar OsgEarthNet.uav[51] utilizationSecMaintenance 19754.82883435
scalar OsgEarthNet.uav[51] utilizationSecCharge 176896.7736217
scalar OsgEarthNet.uav[51] utilizationSecIdle 33662.08721607
scalar OsgEarthNet.uav[51] utilizationEnergyMission 133515.49563599
scalar OsgEarthNet.uav[51] utilizationEnergyMaintenance 92206.152904511
scalar OsgEarthNet.uav[51] utilizationEnergyCharge 225258.82080078
scalar OsgEarthNet.uav[51] utilizationEnergyOverdrawMission 0
scalar OsgEarthNet.uav[51] utilizationEnergyOverdrawMaintenance 0
scalar OsgEarthNet.uav[51] utilizationCountMissions 49
scalar OsgEarthNet.uav[51] utilizationCountManeuversMission 466
scalar OsgEarthNet.uav[51] utilizationCountManeuversMaintenance 98
scalar OsgEarthNet.uav[51] utilizationCountChargeState 49
scalar OsgEarthNet.uav[51] utilizationCountOverdrawnAfterMission 0
scalar OsgEarthNet.uav[51] utilizationCountIdleState 38
scalar OsgEarthNet.uav[51] utilizationFail 0
scalar OsgEarthNet.uav[51] simulationTime 259200
scalar OsgEarthNet.uav[52] utilizationSecMission 25939.427293328
scalar OsgEarthNet.uav[52] utilizationSecMaintenance 22263.196145159
scalar OsgEarthNet.uav[52] utilizationSecCharge 178501.62688131
scalar OsgEarthNet.uav[52] utilizationSecIdle 32495.748680198
scalar OsgEarthNet.uav[52] utilizationEnergyMission 121980.96917343
scalar OsgEarthNet.uav[52] utilizationEnergyMaintenance 103610.99389267
scalar OsgEarthNet.uav[52] utilizationEnergyCharge 225420.52099609
scalar OsgEarthNet.uav[52] utilizationEnergyOverdrawMission 0
scalar OsgEarthNet.uav[52] utilizationEnergyOverdrawMaintenance 10.190719604492
scalar OsgEarthNet.uav[52] utilizationCountMissions 49
scalar OsgEarthNet.uav[52] utilizationCountManeuversMission 428
scalar OsgEarthNet.uav[52] utilizationCountManeuversMaintenance 98
scalar OsgEarthNet.uav[52] utilizationCountChargeState 49
scalar OsgEarthNet.uav[52] utilizationCountOverdrawnAfterMission 1
scalar OsgEarthNet.uav[52] utilizationCountIdleState 40
scalar OsgEarthNet.uav[52] utilizationFail 0
scalar OsgEarthNet.uav[52] simulationTime 259200
scalar OsgEarthNet.uav[53] utilizationSecMission 26282.574835285
scalar OsgEarthNet.uav[53] utilizationSecMaintenance 21597.699716328
scalar OsgEarthNet.uav[53] utilizationSecCharge 173290.24714567
scalar OsgEarthNet.uav[53] utilizationSecIdle 38029.47730272
scalar OsgEarthNet.uav[53] utilizationEnergyMission 121725.65962601
scalar OsgEarthNet.uav[53] utilizationEnergyMaintenance 101438.80920029
scalar OsgEarthNet.uav[53] utilizationEnergyCharge 217850.92578125
scalar OsgEarthNet.uav[53] utilizationEnergyOverdrawMission 0
scalar OsgEarthNet.uav[53] utilizationEnergyOverdrawMaintenance 12.929141998291
scalar OsgEarthNet.uav[53] utilizationCountMissions 49
scalar OsgEarthNet.uav[53] utilizationCountManeuversMission 428
scalar OsgEarthNet.uav[53] utilizationCountManeuversMaintenance 98
scalar OsgEarthNet.uav[53] utilizationCountChargeState 49
scalar OsgEarthNet.uav[53] utilizationCountOverdrawnAfterMission 1
scalar OsgEarthNet.uav[53] utilizationCountIdleState 41
scalar OsgEarthNet.uav[53] utilizationFail 0
scalar OsgEarthNet.uav[53] simulationTime 259200
scalar OsgEarthNet.uav[54] utilizationSecMission 29549.254526993
scalar OsgEarthNet.uav[54] utilizationSecMaintenance 20165.626243114
scalar OsgEarthNet.uav[54] utilizationSecCharge 179516.66195946
scalar OsgEarthNet.uav[54] utilizationSecIdle 29968.456270436
scalar OsgEarthNet.uav[54] utilizationEnergyMission 137339.66996002
scalar OsgEarthNet.uav[54] utilizationEnergyMaintenance 92917.928230286
scalar OsgEarthNet.uav[54] utilizationEnergyCharge 227488.11328125
scalar OsgEarthNet.uav[54] utilizationEnergyOverdrawMission 0
scalar OsgEarthNet.uav[54] utilizationEnergyOverdrawMaintenance 0
scalar OsgEarthNet.uav[54] utilizationCountMissions 50
scalar OsgEarthNet.uav[54] utilizationCountManeuversMission 476
scalar OsgEarthNet.uav[54] utilizationCountManeuversMaintenance 100
scalar OsgEarthNet.uav[54] utilizationCountChargeState 50
scalar OsgEarthNet.uav[54] utilizationCountOverdrawnAfterMission 0
scalar OsgEarthNet.uav[54] utilizationCountIdleState 41
scalar OsgEarthNet.uav[54] utilizationFail 0
scalar OsgEarthNet.uav[54] simulationTime 259200
scalar OsgEarthNet.uav[55] utilizationSecMission 29579.73178413
scalar OsgEarthNet.uav[55] utilizationSecMaintenance 19464.581918129
scalar OsgEarthNet.uav[55] utilizationSecCharge 179380
scalar OsgEarthNet.uav[55] utilizationSecIdle 30775.685297741
scalar OsgEarthNet.uav[55] utilizationEnergyMission 137082.15603256
scalar OsgEarthNet.uav[55] utilizationEnergyMaintenance 89215.069965363
scalar OsgEarthNet.uav[55] utilizationEnergyCharge 225212.89941406
scalar OsgEarthNet.uav[55] utilizationEnergyOverdrawMission 0
scalar OsgEarthNet.uav[55] utilizationEnergyOverdrawMaintenance 0
scalar OsgEarthNet.uav[55] utilizationCountMissions 50
scalar OsgEarthNet.uav[55] utilizationCountManeuversMission 491
scalar OsgEarthNet.uav[55] utilizationCountManeuversMaintenance 100
scalar OsgEarthNet.uav[55] utilizationCountChargeState 50
scalar OsgEarthNet.uav[55] utilizationCountOverdrawnAfterMission 0
scalar OsgEarthNet.uav[55] utilizationCountIdleState 46
scalar OsgEarthNet.uav[55] utilizationFail 0
scalar OsgEarthNet.uav[55] simulationTime 259200
scalar OsgEarthNet.uav[56] utilizationSecMission 27808.222234149
scalar OsgEarthNet.uav[56] utilizationSecMaintenance 23885.821896341
scalar OsgEarthNet.uav[56] utilizationSecCharge 184803.83914901
scalar OsgEarthNet.uav[56] utilizationSecIdle 22702.115720497
scalar OsgEarthNet.uav[56] utilizationEnergyMission 128009.24164581
scalar OsgEarthNet.uav[56] utilizationEnergyMaintenance 110113.82905197
scalar OsgEarthNet.uav[56] utilizationEnergyCharge 235167.23205566
scalar OsgEarthNet.uav[56] utilizationEnergyOverdrawMission 0
scalar OsgEarthNet.uav[56] utilizationEnergyOverdrawMaintenance 0
scalar OsgEarthNet.uav[56] utilizationCountMissions 52
scalar OsgEarthNet.uav[56] utilizationCountManeuversMission 446
scalar OsgEarthNet.uav[56] utilizationCountManeuversMaintenance 104
scalar OsgEarthNet.uav[56] utilizationCountChargeState 52
scalar OsgEarthNet.uav[56] utilizationCountOverdrawnAfterMission 0
scalar OsgEarthNet.uav[56] utilizationCountIdleState 37
scalar OsgEarthNet.uav[56] utilizationFail 0
scalar OsgEarthNet.uav[56] simulationTime 259200
scalar OsgEarthNet.uav[57] utilizationSecMission 29919.384738223
scalar OsgEarthNet.uav[57] utilizationSecMaintenance 20758.530858747
scalar OsgEarthNet.uav[57] utilizationSecCharge 184508.87949527
scalar OsgEarthNet.uav[57] utilizationSecIdle 24013.20390776
scalar OsgEarthNet.uav[57] utilizationEnergyMission 138907.43978882
scalar OsgEarthNet.uav[57] utilizationEnergyMaintenance 96700.327747345
scalar OsgEarthNet.uav[57] utilizationEnergyCharge 233211.66992188
scalar OsgEarthNet.uav[57] utilizationEnergyOverdrawMission 0
scalar OsgEarthNet.uav[57] utilizationEnergyOverdrawMaintenance 0
scalar OsgEarthNet.uav[57] utilizationCountMissions 52
scalar OsgEarthNet.uav[57] utilizationCountManeuversMission 489
scalar OsgEarthNet.uav[57] utilizationCountManeuversMaintenance 104
scalar OsgEarthNet.uav[57] utilizationCountChargeState 52
scalar OsgEarthNet.uav[57] utilizationCountOverdrawnAfterMission 0
scalar OsgEarthNet.uav[57] utilizationCountIdleState 42
scalar OsgEarthNet.uav[57] utilizationFail 0
scalar OsgEarthNet.uav[57] simulationTime 259200
scalar OsgEarthNet.uav[58] utilizationSecMission 28018.849249383
scalar OsgEarthNet.uav[58] utilizationSecMaintenance 24061.605197224
scalar OsgEarthNet.uav[58] utilizationSecCharge 190320
scalar OsgEarthNet.uav[58] utilizationSecIdle 16799.544553393
scalar OsgEarthNet.uav[58] utilizationEnergyMission 128817.09342194
scalar OsgEarthNet.uav[58] utilizationEnergyMaintenance 112628.3419075
scalar OsgEarthNet.uav[58] utilizationEnergyCharge 241644.86254883
scalar OsgEarthNet.uav[58] utilizationEnergyOverdrawMission 0
scalar OsgEarthNet.uav[58] utilizationEnergyOverdrawMaintenance 0
scalar OsgEarthNet.uav[58] utilizationCountMissions 53
scalar OsgEarthNet.uav[58] utilizationCountManeuversMission 452
scalar OsgEarthNet.uav[58] utilizationCountManeuversMaintenance 106
scalar OsgEarthNet.uav[58] utilizationCountChargeState 53
scalar OsgEarthNet.uav[58] utilizationCountOverdrawnAfterMission 0
scalar OsgEarthNet.uav[58] utilizationCountIdleState 38
scalar OsgEarthNet.uav[58] utilizationFail 0
scalar OsgEarthNet.uav[58] simulationTime 259200
scalar OsgEarthNet.uav[59] utilizationSecMission 28706.974413497
scalar OsgEarthNet.uav[59] utilizationSecMaintenance 23682.61945341
scalar OsgEarthNet.uav[59] utilizationSecCharge 190631.81155081
scalar OsgEarthNet.uav[59] utilizationSecIdle 16178.593582285
scalar OsgEarthNet.uav[59] utilizationEnergyMission 132315.05168152
scalar OsgEarthNet.uav[59] utilizationEnergyMaintenance 108335.31760788
scalar OsgEarthNet.uav[59] utilizationEnergyCharge 240998.94482422
scalar OsgEarthNet.uav[59] utilizationEnergyOverdrawMission 0
scalar OsgEarthNet.uav[59] utilizationEnergyOverdrawMaintenance 0
scalar OsgEarthNet.uav[59] utilizationCountMissions 53
scalar OsgEarthNet.uav[59] utilizationCountManeuversMission 471
scalar OsgEarthNet.uav[59] utilizationCountManeuversMaintenance 106
scalar OsgEarthNet.uav[59] utilizationCountChargeState 53
scalar OsgEarthNet.uav[59] utilizationCountOverdrawnAfterMission 0
scalar OsgEarthNet.uav[59] utilizationCountIdleState 42
scalar OsgEarthNet.uav[59] utilizationFail 0
scalar OsgEarthNet.uav[59] simulationTime 259200
scalar OsgEarthNet.cs[0] usedPower 2167908.9529909
scalar OsgEarthNet.cs[0] chargedPower 2167908.9529909
scalar OsgEarthNet.cs[0] chargedMobileNodes 442
scalar OsgEarthNet.cs[0] reservations 482
scalar OsgEarthNet.cs[1] usedPower 2831097.6996436
scalar OsgEarthNet.cs[1] chargedPower 2831097.6996436
scalar OsgEarthNet.cs[1] chargedMobileNodes 570
scalar OsgEarthNet.cs[1] reservations 614
scalar OsgEarthNet.cs[2] usedPower 4984489.0953649
scalar OsgEarthNet.cs[2] chargedPower 4984489.0953649
scalar OsgEarthNet.cs[2] chargedMobileNodes 1038
scalar OsgEarthNet.cs[2] reservations 1101

