version 2
run Szenario_Hotel_Gabelbach-75-20180710-03:37:06-49724
attr configname Szenario_Hotel_Gabelbach
attr datetime 20180710-03:37:06
attr experiment Szenario_Hotel_Gabelbach
attr inifile omnetpp.ini
attr iterationvars "$numUAVs=60, $replM=0"
attr iterationvarsf numUAVs=60,replM=0-
attr measurement "$numUAVs=60, $replM=0"
attr network OsgEarthNet
attr processid 49724
attr repetition 11
attr replication #11
attr resultdir results
attr runnumber 75
attr seedset 75
itervar numUAVs 60
itervar replM 0
param *.osgEarthScene.scene "\"Szenario_Hotel_Gabelbach.earth\""
param *.playgroundLatitude 50.6830269
param *.playgroundLongitude 10.8538055
param *.playgroundWidth 3500m
param *.playgroundHeight 3500m
param *.numCSs 3
param *.cs[0].posX 3537m
param *.cs[0].posY 965m
param *.cs[0].posZ 538m
param *.cs[1].posX 312m
param *.cs[1].posY 1262m
param *.cs[1].posZ 539m
param *.cs[2].posX 2185m
param *.cs[2].posY 3026m
param *.cs[2].posZ 777m
param *.cs[3].posX 10m
param *.cs[3].posY 2200m
param *.cs[3].posZ 560m
param *.cs[4].posX 750m
param *.cs[4].posY 200m
param *.cs[4].posZ 540m
param *.cs[5].posX 2450m
param *.cs[5].posY 180m
param *.cs[5].posZ 524m
param *.cs[6].posX 3140m
param *.cs[6].posY 1790m
param *.cs[6].posZ 606m
param *.numUAVs 60
param *.uav[*].replacementMethod 0
param *.*.timeStep 10s
param *.uav[*].commandPreviewCommandCount 20
param *.missionControl.missionFiles "\"missions\\\\Szenario_WB_Hotel_Gabelbach_Mission_Hotel.waypoints,missions\\\\Szenario_WB_Hotel_Gabelbach_Mission_Kickelhahn.waypoints,missions\\\\Szenario_WB_Hotel_Gabelbach_Mission_Ilmenau_Sportplatz.waypoints,missions\\\\Szenario_WB_Hotel_Gabelbach_Mission_Manebach_Mitte.waypoints,missions\\\\Szenario_WB_Hotel_Gabelbach_Mission_Manebach_Sued.waypoints\""
param *.missionControl.missionFiles "\"missions\\\\Szenario_WB_Hotel_Gabelbach_Mission_Hotel.waypoints,missions\\\\Szenario_WB_Hotel_Gabelbach_Mission_Kickelhahn.waypoints,missions\\\\Szenario_WB_Hotel_Gabelbach_Mission_Ilmenau_Sportplatz.waypoints,missions\\\\Szenario_WB_Hotel_Gabelbach_Mission_Manebach_Mitte.waypoints,missions\\\\Szenario_WB_Hotel_Gabelbach_Mission_Manebach_Sued.waypoints,missions\\\\Szenario_WB_Hotel_Gabelbach_Hover_HoheSchlaufe.waypoints,missions\\\\Szenario_WB_Hotel_Gabelbach_Hover_Kickelhahn.waypoints,missions\\\\Szenario_WB_Hotel_Gabelbach_Hover_Gabelbachskopf.waypoints,missions\\\\Szenario_WB_Hotel_Gabelbach_Hover_Dachskopf.waypoints\""
param *.uav[0].startX 3537m
param *.uav[0].startY 965m
param *.uav[0].startZ 539m
param *.uav[1].startX 312m
param *.uav[1].startY 1262m
param *.uav[1].startZ 540m
param *.uav[2].startX 2185m
param *.uav[2].startY 3026m
param *.uav[2].startZ 778m
param *.uav[3].startX 3537m
param *.uav[3].startY 965m
param *.uav[3].startZ 539m
param *.uav[4].startX 312m
param *.uav[4].startY 1262m
param *.uav[4].startZ 540m
param *.uav[5].startX 2185m
param *.uav[5].startY 3026m
param *.uav[5].startZ 778m
param *.uav[6].startX 3537m
param *.uav[6].startY 965m
param *.uav[6].startZ 539m
param *.uav[7].startX 312m
param *.uav[7].startY 1262m
param *.uav[7].startZ 540m
param *.uav[8].startX 2185m
param *.uav[8].startY 3026m
param *.uav[8].startZ 778m
param *.uav[9].startX 3537m
param *.uav[9].startY 965m
param *.uav[9].startZ 539m
param *.uav[10].startX 3537m
param *.uav[10].startY 965m
param *.uav[10].startZ 539m
param *.uav[11].startX 312m
param *.uav[11].startY 1262m
param *.uav[11].startZ 540m
param *.uav[12].startX 2185m
param *.uav[12].startY 3026m
param *.uav[12].startZ 778m
param *.uav[13].startX 3537m
param *.uav[13].startY 965m
param *.uav[13].startZ 539m
param *.uav[14].startX 312m
param *.uav[14].startY 1262m
param *.uav[14].startZ 540m
param *.uav[15].startX 2185m
param *.uav[15].startY 3026m
param *.uav[15].startZ 778m
param *.uav[16].startX 3537m
param *.uav[16].startY 965m
param *.uav[16].startZ 539m
param *.uav[17].startX 312m
param *.uav[17].startY 1262m
param *.uav[17].startZ 540m
param *.uav[18].startX 2185m
param *.uav[18].startY 3026m
param *.uav[18].startZ 778m
param *.uav[19].startX 3537m
param *.uav[19].startY 965m
param *.uav[19].startZ 539m
param *.uav[20].startX 3537m
param *.uav[20].startY 965m
param *.uav[20].startZ 539m
param *.uav[21].startX 312m
param *.uav[21].startY 1262m
param *.uav[21].startZ 540m
param *.uav[22].startX 2185m
param *.uav[22].startY 3026m
param *.uav[22].startZ 778m
param *.uav[23].startX 3537m
param *.uav[23].startY 965m
param *.uav[23].startZ 539m
param *.uav[24].startX 312m
param *.uav[24].startY 1262m
param *.uav[24].startZ 540m
param *.uav[25].startX 2185m
param *.uav[25].startY 3026m
param *.uav[25].startZ 778m
param *.uav[26].startX 3537m
param *.uav[26].startY 965m
param *.uav[26].startZ 539m
param *.uav[27].startX 312m
param *.uav[27].startY 1262m
param *.uav[27].startZ 540m
param *.uav[28].startX 2185m
param *.uav[28].startY 3026m
param *.uav[28].startZ 778m
param *.uav[29].startX 3537m
param *.uav[29].startY 965m
param *.uav[29].startZ 539m
param *.uav[30].startX 3537m
param *.uav[30].startY 965m
param *.uav[30].startZ 539m
param *.uav[31].startX 312m
param *.uav[31].startY 1262m
param *.uav[31].startZ 540m
param *.uav[32].startX 2185m
param *.uav[32].startY 3026m
param *.uav[32].startZ 778m
param *.uav[33].startX 3537m
param *.uav[33].startY 965m
param *.uav[33].startZ 539m
param *.uav[34].startX 312m
param *.uav[34].startY 1262m
param *.uav[34].startZ 540m
param *.uav[35].startX 2185m
param *.uav[35].startY 3026m
param *.uav[35].startZ 778m
param *.uav[36].startX 3537m
param *.uav[36].startY 965m
param *.uav[36].startZ 539m
param *.uav[37].startX 312m
param *.uav[37].startY 1262m
param *.uav[37].startZ 540m
param *.uav[38].startX 2185m
param *.uav[38].startY 3026m
param *.uav[38].startZ 778m
param *.uav[39].startX 3537m
param *.uav[39].startY 965m
param *.uav[39].startZ 539m
param *.uav[40].startX 3537m
param *.uav[40].startY 965m
param *.uav[40].startZ 539m
param *.uav[41].startX 312m
param *.uav[41].startY 1262m
param *.uav[41].startZ 540m
param *.uav[42].startX 2185m
param *.uav[42].startY 3026m
param *.uav[42].startZ 778m
param *.uav[43].startX 3537m
param *.uav[43].startY 965m
param *.uav[43].startZ 539m
param *.uav[44].startX 312m
param *.uav[44].startY 1262m
param *.uav[44].startZ 540m
param *.uav[45].startX 2185m
param *.uav[45].startY 3026m
param *.uav[45].startZ 778m
param *.uav[46].startX 3537m
param *.uav[46].startY 965m
param *.uav[46].startZ 539m
param *.uav[47].startX 312m
param *.uav[47].startY 1262m
param *.uav[47].startZ 540m
param *.uav[48].startX 2185m
param *.uav[48].startY 3026m
param *.uav[48].startZ 778m
param *.uav[49].startX 3537m
param *.uav[49].startY 965m
param *.uav[49].startZ 539m
param *.uav[50].startX 3537m
param *.uav[50].startY 965m
param *.uav[50].startZ 539m
param *.uav[51].startX 312m
param *.uav[51].startY 1262m
param *.uav[51].startZ 540m
param *.uav[52].startX 2185m
param *.uav[52].startY 3026m
param *.uav[52].startZ 778m
param *.uav[53].startX 3537m
param *.uav[53].startY 965m
param *.uav[53].startZ 539m
param *.uav[54].startX 312m
param *.uav[54].startY 1262m
param *.uav[54].startZ 540m
param *.uav[55].startX 2185m
param *.uav[55].startY 3026m
param *.uav[55].startZ 778m
param *.uav[56].startX 3537m
param *.uav[56].startY 965m
param *.uav[56].startZ 539m
param *.uav[57].startX 312m
param *.uav[57].startY 1262m
param *.uav[57].startZ 540m
param *.uav[58].startX 2185m
param *.uav[58].startY 3026m
param *.uav[58].startZ 778m
param *.uav[59].startX 3537m
param *.uav[59].startY 965m
param *.uav[59].startZ 539m
param *.uav[60].startX 3537m
param *.uav[60].startY 965m
param *.uav[60].startZ 539m
param *.uav[61].startX 312m
param *.uav[61].startY 1262m
param *.uav[61].startZ 540m
param *.uav[62].startX 2185m
param *.uav[62].startY 3026m
param *.uav[62].startZ 778m
param *.uav[63].startX 3537m
param *.uav[63].startY 965m
param *.uav[63].startZ 539m
param *.uav[64].startX 312m
param *.uav[64].startY 1262m
param *.uav[64].startZ 540m
param *.uav[65].startX 2185m
param *.uav[65].startY 3026m
param *.uav[65].startZ 778m
param *.uav[66].startX 3537m
param *.uav[66].startY 965m
param *.uav[66].startZ 539m
param *.uav[67].startX 312m
param *.uav[67].startY 1262m
param *.uav[67].startZ 540m
param *.uav[68].startX 2185m
param *.uav[68].startY 3026m
param *.uav[68].startZ 778m
param *.uav[69].startX 3537m
param *.uav[69].startY 965m
param *.uav[69].startZ 539m
param *.uav[70].startX 3537m
param *.uav[70].startY 965m
param *.uav[70].startZ 539m
param *.uav[71].startX 312m
param *.uav[71].startY 1262m
param *.uav[71].startZ 540m
param *.uav[72].startX 2185m
param *.uav[72].startY 3026m
param *.uav[72].startZ 778m
param *.uav[73].startX 3537m
param *.uav[73].startY 965m
param *.uav[73].startZ 539m
param *.uav[74].startX 312m
param *.uav[74].startY 1262m
param *.uav[74].startZ 540m
param *.uav[75].startX 2185m
param *.uav[75].startY 3026m
param *.uav[75].startZ 778m
param *.uav[76].startX 3537m
param *.uav[76].startY 965m
param *.uav[76].startZ 539m
param *.uav[77].startX 312m
param *.uav[77].startY 1262m
param *.uav[77].startZ 540m
param *.uav[78].startX 2185m
param *.uav[78].startY 3026m
param *.uav[78].startZ 778m
param *.uav[79].startX 3537m
param *.uav[79].startY 965m
param *.uav[79].startZ 539m
param *.uav[80].startX 3537m
param *.uav[80].startY 965m
param *.uav[80].startZ 539m
param *.uav[81].startX 312m
param *.uav[81].startY 1262m
param *.uav[81].startZ 540m
param *.uav[82].startX 2185m
param *.uav[82].startY 3026m
param *.uav[82].startZ 778m
param *.uav[83].startX 3537m
param *.uav[83].startY 965m
param *.uav[83].startZ 539m
param *.uav[84].startX 312m
param *.uav[84].startY 1262m
param *.uav[84].startZ 540m
param *.uav[85].startX 2185m
param *.uav[85].startY 3026m
param *.uav[85].startZ 778m
param *.uav[86].startX 3537m
param *.uav[86].startY 965m
param *.uav[86].startZ 539m
param *.uav[87].startX 312m
param *.uav[87].startY 1262m
param *.uav[87].startZ 540m
param *.uav[88].startX 2185m
param *.uav[88].startY 3026m
param *.uav[88].startZ 778m
param *.uav[89].startX 3537m
param *.uav[89].startY 965m
param *.uav[89].startZ 539m
param *.uav[90].startX 3537m
param *.uav[90].startY 965m
param *.uav[90].startZ 539m
param *.uav[91].startX 312m
param *.uav[91].startY 1262m
param *.uav[91].startZ 540m
param *.uav[92].startX 2185m
param *.uav[92].startY 3026m
param *.uav[92].startZ 778m
param *.uav[93].startX 3537m
param *.uav[93].startY 965m
param *.uav[93].startZ 539m
param *.uav[94].startX 312m
param *.uav[94].startY 1262m
param *.uav[94].startZ 540m
param *.uav[95].startX 2185m
param *.uav[95].startY 3026m
param *.uav[95].startZ 778m
param *.uav[96].startX 3537m
param *.uav[96].startY 965m
param *.uav[96].startZ 539m
param *.uav[97].startX 312m
param *.uav[97].startY 1262m
param *.uav[97].startZ 540m
param *.uav[98].startX 2185m
param *.uav[98].startY 3026m
param *.uav[98].startZ 778m
param *.uav[99].startX 3537m
param *.uav[99].startY 965m
param *.uav[99].startZ 539m
param *.osgEarthScene.scene "\"boston.earth\""
param *.playgroundLatitude 42.3558
param *.playgroundLongitude -71.0677
param *.playgroundWidth 400m
param *.playgroundHeight 200m
param *.channelController.connectionColor "\"#0000FF40\""
param *.channelController.showConnections false
param *.uav[*].modelURL "\"quadrocopter.small.obj.15.scale.0,0,90.rot\""
param *.uav[*].labelColor "\"#FF7C00CC\""
param *.uav[*].label2Color "\"#FF7C00EE\""
param *.uav[*].batteryCapacity 5200mAh
param *.uav[*].batteryRemaining uav[index].batteryCapacity
param *.uav[*].predictionQuantile 0.95
param *.uav[*].replacementMethod 2
param *.uav[*].weightedSumWeight 0.5
param *.cs[*].modelURL "\"chargingstation_v1.osgt.2.scale.0,0,0.rot.0,0,-15e-1.trans\""
param *.cs[*].spotsWaiting 999
param *.cs[*].spotsCharging 999
param *.cs[*].chargeEffectivenessPercentage 100
param *.cs[*].nonLinearPhaseStartPercentage 85
param *.cs[*].chargeCurrent 6.0A
param *.cs[*].prioritizeFastCharge true
param *.missionControl.replacementSearchMethod 0
param *.*.timeStep 9s

scalar OsgEarthNet.uav[0] utilizationSecMission 9266.8928768261
scalar OsgEarthNet.uav[0] utilizationSecMaintenance 6993.6976611542
scalar OsgEarthNet.uav[0] utilizationSecCharge 60250
scalar OsgEarthNet.uav[0] utilizationSecIdle 182689.40846202
scalar OsgEarthNet.uav[0] utilizationEnergyMission 42375.216819763
scalar OsgEarthNet.uav[0] utilizationEnergyMaintenance 32408.855628967
scalar OsgEarthNet.uav[0] utilizationEnergyCharge 74888.806640625
scalar OsgEarthNet.uav[0] utilizationEnergyOverdrawMission 0
scalar OsgEarthNet.uav[0] utilizationEnergyOverdrawMaintenance 0
scalar OsgEarthNet.uav[0] utilizationCountMissions 17
scalar OsgEarthNet.uav[0] utilizationCountManeuversMission 151
scalar OsgEarthNet.uav[0] utilizationCountManeuversMaintenance 34
scalar OsgEarthNet.uav[0] utilizationCountChargeState 17
scalar OsgEarthNet.uav[0] utilizationCountOverdrawnAfterMission 0
scalar OsgEarthNet.uav[0] utilizationCountIdleState 18
scalar OsgEarthNet.uav[0] utilizationFail 0
scalar OsgEarthNet.uav[0] simulationTime 259200
scalar OsgEarthNet.uav[1] utilizationSecMission 24438.721125593
scalar OsgEarthNet.uav[1] utilizationSecMaintenance 15828.288006872
scalar OsgEarthNet.uav[1] utilizationSecCharge 147239.1428126
scalar OsgEarthNet.uav[1] utilizationSecIdle 71693.847054935
scalar OsgEarthNet.uav[1] utilizationEnergyMission 113494.9409256
scalar OsgEarthNet.uav[1] utilizationEnergyMaintenance 74178.991588593
scalar OsgEarthNet.uav[1] utilizationEnergyCharge 187122.93774414
scalar OsgEarthNet.uav[1] utilizationEnergyOverdrawMission 0
scalar OsgEarthNet.uav[1] utilizationEnergyOverdrawMaintenance 0
scalar OsgEarthNet.uav[1] utilizationCountMissions 40
scalar OsgEarthNet.uav[1] utilizationCountManeuversMission 401
scalar OsgEarthNet.uav[1] utilizationCountManeuversMaintenance 80
scalar OsgEarthNet.uav[1] utilizationCountChargeState 40
scalar OsgEarthNet.uav[1] utilizationCountOverdrawnAfterMission 0
scalar OsgEarthNet.uav[1] utilizationCountIdleState 40
scalar OsgEarthNet.uav[1] utilizationFail 0
scalar OsgEarthNet.uav[1] simulationTime 259200
scalar OsgEarthNet.uav[2] utilizationSecMission 3246.9690776562
scalar OsgEarthNet.uav[2] utilizationSecMaintenance 1760.6753583538
scalar OsgEarthNet.uav[2] utilizationSecCharge 18230
scalar OsgEarthNet.uav[2] utilizationSecIdle 235962.35456399
scalar OsgEarthNet.uav[2] utilizationEnergyMission 14690.023773193
scalar OsgEarthNet.uav[2] utilizationEnergyMaintenance 7954.0345726013
scalar OsgEarthNet.uav[2] utilizationEnergyCharge 22796.96875
scalar OsgEarthNet.uav[2] utilizationEnergyOverdrawMission 0
scalar OsgEarthNet.uav[2] utilizationEnergyOverdrawMaintenance 0
scalar OsgEarthNet.uav[2] utilizationCountMissions 5
scalar OsgEarthNet.uav[2] utilizationCountManeuversMission 54
scalar OsgEarthNet.uav[2] utilizationCountManeuversMaintenance 10
scalar OsgEarthNet.uav[2] utilizationCountChargeState 5
scalar OsgEarthNet.uav[2] utilizationCountOverdrawnAfterMission 0
scalar OsgEarthNet.uav[2] utilizationCountIdleState 6
scalar OsgEarthNet.uav[2] utilizationFail 0
scalar OsgEarthNet.uav[2] simulationTime 259200
scalar OsgEarthNet.uav[3] utilizationSecMission 3391.1638878009
scalar OsgEarthNet.uav[3] utilizationSecMaintenance 3348.7817705006
scalar OsgEarthNet.uav[3] utilizationSecCharge 25680
scalar OsgEarthNet.uav[3] utilizationSecIdle 226780.0533417
scalar OsgEarthNet.uav[3] utilizationEnergyMission 16200.422470093
scalar OsgEarthNet.uav[3] utilizationEnergyMaintenance 16048.040863037
scalar OsgEarthNet.uav[3] utilizationEnergyCharge 32236.858886719
scalar OsgEarthNet.uav[3] utilizationEnergyOverdrawMission 0
scalar OsgEarthNet.uav[3] utilizationEnergyOverdrawMaintenance 0
scalar OsgEarthNet.uav[3] utilizationCountMissions 7
scalar OsgEarthNet.uav[3] utilizationCountManeuversMission 55
scalar OsgEarthNet.uav[3] utilizationCountManeuversMaintenance 14
scalar OsgEarthNet.uav[3] utilizationCountChargeState 7
scalar OsgEarthNet.uav[3] utilizationCountOverdrawnAfterMission 0
scalar OsgEarthNet.uav[3] utilizationCountIdleState 8
scalar OsgEarthNet.uav[3] utilizationFail 0
scalar OsgEarthNet.uav[3] simulationTime 259200
scalar OsgEarthNet.uav[4] utilizationSecMission 528.55000878666
scalar OsgEarthNet.uav[4] utilizationSecMaintenance 413.64453676047
scalar OsgEarthNet.uav[4] utilizationSecCharge 3270
scalar OsgEarthNet.uav[4] utilizationSecIdle 254987.80445445
scalar OsgEarthNet.uav[4] utilizationEnergyMission 2300.0361785889
scalar OsgEarthNet.uav[4] utilizationEnergyMaintenance 1618.7564315796
scalar OsgEarthNet.uav[4] utilizationEnergyCharge 3918.7963867188
scalar OsgEarthNet.uav[4] utilizationEnergyOverdrawMission 0
scalar OsgEarthNet.uav[4] utilizationEnergyOverdrawMaintenance 0
scalar OsgEarthNet.uav[4] utilizationCountMissions 1
scalar OsgEarthNet.uav[4] utilizationCountManeuversMission 10
scalar OsgEarthNet.uav[4] utilizationCountManeuversMaintenance 2
scalar OsgEarthNet.uav[4] utilizationCountChargeState 1
scalar OsgEarthNet.uav[4] utilizationCountOverdrawnAfterMission 0
scalar OsgEarthNet.uav[4] utilizationCountIdleState 2
scalar OsgEarthNet.uav[4] utilizationFail 0
scalar OsgEarthNet.uav[4] simulationTime 259200
scalar OsgEarthNet.uav[5] utilizationSecMission 30116.787427796
scalar OsgEarthNet.uav[5] utilizationSecMaintenance 18824.154018498
scalar OsgEarthNet.uav[5] utilizationSecCharge 178057.05755371
scalar OsgEarthNet.uav[5] utilizationSecIdle 32202
scalar OsgEarthNet.uav[5] utilizationEnergyMission 139453.53088251
scalar OsgEarthNet.uav[5] utilizationEnergyMaintenance 87240.419193268
scalar OsgEarthNet.uav[5] utilizationEnergyCharge 222951.59753418
scalar OsgEarthNet.uav[5] utilizationEnergyOverdrawMission 0
scalar OsgEarthNet.uav[5] utilizationEnergyOverdrawMaintenance 0
scalar OsgEarthNet.uav[5] utilizationCountMissions 50
scalar OsgEarthNet.uav[5] utilizationCountManeuversMission 500
scalar OsgEarthNet.uav[5] utilizationCountManeuversMaintenance 99
scalar OsgEarthNet.uav[5] utilizationCountChargeState 50
scalar OsgEarthNet.uav[5] utilizationCountOverdrawnAfterMission 0
scalar OsgEarthNet.uav[5] utilizationCountIdleState 50
scalar OsgEarthNet.uav[5] utilizationFail 0
scalar OsgEarthNet.uav[5] simulationTime 259200
scalar OsgEarthNet.uav[6] utilizationSecMission 664.13705230755
scalar OsgEarthNet.uav[6] utilizationSecMaintenance 395.66948748195
scalar OsgEarthNet.uav[6] utilizationSecCharge 3880
scalar OsgEarthNet.uav[6] utilizationSecIdle 254260.19246021
scalar OsgEarthNet.uav[6] utilizationEnergyMission 3061.3034210205
scalar OsgEarthNet.uav[6] utilizationEnergyMaintenance 1835.6510734558
scalar OsgEarthNet.uav[6] utilizationEnergyCharge 4984.275390625
scalar OsgEarthNet.uav[6] utilizationEnergyOverdrawMission 0
scalar OsgEarthNet.uav[6] utilizationEnergyOverdrawMaintenance 0
scalar OsgEarthNet.uav[6] utilizationCountMissions 1
scalar OsgEarthNet.uav[6] utilizationCountManeuversMission 10
scalar OsgEarthNet.uav[6] utilizationCountManeuversMaintenance 2
scalar OsgEarthNet.uav[6] utilizationCountChargeState 1
scalar OsgEarthNet.uav[6] utilizationCountOverdrawnAfterMission 0
scalar OsgEarthNet.uav[6] utilizationCountIdleState 2
scalar OsgEarthNet.uav[6] utilizationFail 0
scalar OsgEarthNet.uav[6] simulationTime 259200
scalar OsgEarthNet.uav[7] utilizationSecMission 475.70932794513
scalar OsgEarthNet.uav[7] utilizationSecMaintenance 417.89319261334
scalar OsgEarthNet.uav[7] utilizationSecCharge 3200
scalar OsgEarthNet.uav[7] utilizationSecIdle 255106.39647944
scalar OsgEarthNet.uav[7] utilizationEnergyMission 1993.1818466186
scalar OsgEarthNet.uav[7] utilizationEnergyMaintenance 1823.5892562866
scalar OsgEarthNet.uav[7] utilizationEnergyCharge 3816.7705078125
scalar OsgEarthNet.uav[7] utilizationEnergyOverdrawMission 0
scalar OsgEarthNet.uav[7] utilizationEnergyOverdrawMaintenance 0
scalar OsgEarthNet.uav[7] utilizationCountMissions 1
scalar OsgEarthNet.uav[7] utilizationCountManeuversMission 9
scalar OsgEarthNet.uav[7] utilizationCountManeuversMaintenance 2
scalar OsgEarthNet.uav[7] utilizationCountChargeState 1
scalar OsgEarthNet.uav[7] utilizationCountOverdrawnAfterMission 0
scalar OsgEarthNet.uav[7] utilizationCountIdleState 2
scalar OsgEarthNet.uav[7] utilizationFail 0
scalar OsgEarthNet.uav[7] simulationTime 259200
scalar OsgEarthNet.uav[8] utilizationSecMission 26607.524142411
scalar OsgEarthNet.uav[8] utilizationSecMaintenance 17373.049510299
scalar OsgEarthNet.uav[8] utilizationSecCharge 158540
scalar OsgEarthNet.uav[8] utilizationSecIdle 56679.42534729
scalar OsgEarthNet.uav[8] utilizationEnergyMission 121779.26317215
scalar OsgEarthNet.uav[8] utilizationEnergyMaintenance 79989.002552537
scalar OsgEarthNet.uav[8] utilizationEnergyCharge 198119.75073242
scalar OsgEarthNet.uav[8] utilizationEnergyOverdrawMission 0
scalar OsgEarthNet.uav[8] utilizationEnergyOverdrawMaintenance 0
scalar OsgEarthNet.uav[8] utilizationCountMissions 45
scalar OsgEarthNet.uav[8] utilizationCountManeuversMission 430
scalar OsgEarthNet.uav[8] utilizationCountManeuversMaintenance 90
scalar OsgEarthNet.uav[8] utilizationCountChargeState 44
scalar OsgEarthNet.uav[8] utilizationCountOverdrawnAfterMission 0
scalar OsgEarthNet.uav[8] utilizationCountIdleState 45
scalar OsgEarthNet.uav[8] utilizationFail 0
scalar OsgEarthNet.uav[8] simulationTime 259200
scalar OsgEarthNet.uav[9] utilizationSecMission 24666.279512483
scalar OsgEarthNet.uav[9] utilizationSecMaintenance 16696.72218625
scalar OsgEarthNet.uav[9] utilizationSecCharge 150839.84827057
scalar OsgEarthNet.uav[9] utilizationSecIdle 66997.149030701
scalar OsgEarthNet.uav[9] utilizationEnergyMission 114019.70042419
scalar OsgEarthNet.uav[9] utilizationEnergyMaintenance 78630.195495605
scalar OsgEarthNet.uav[9] utilizationEnergyCharge 189706.10217285
scalar OsgEarthNet.uav[9] utilizationEnergyOverdrawMission 0
scalar OsgEarthNet.uav[9] utilizationEnergyOverdrawMaintenance 0
scalar OsgEarthNet.uav[9] utilizationCountMissions 42
scalar OsgEarthNet.uav[9] utilizationCountManeuversMission 413
scalar OsgEarthNet.uav[9] utilizationCountManeuversMaintenance 84
scalar OsgEarthNet.uav[9] utilizationCountChargeState 42
scalar OsgEarthNet.uav[9] utilizationCountOverdrawnAfterMission 0
scalar OsgEarthNet.uav[9] utilizationCountIdleState 42
scalar OsgEarthNet.uav[9] utilizationFail 0
scalar OsgEarthNet.uav[9] simulationTime 259200
scalar OsgEarthNet.uav[10] utilizationSecMission 17260.256035686
scalar OsgEarthNet.uav[10] utilizationSecMaintenance 13069.646417878
scalar OsgEarthNet.uav[10] utilizationSecCharge 109831.69521135
scalar OsgEarthNet.uav[10] utilizationSecIdle 119038.40133509
scalar OsgEarthNet.uav[10] utilizationEnergyMission 79961.530845642
scalar OsgEarthNet.uav[10] utilizationEnergyMaintenance 60283.675579071
scalar OsgEarthNet.uav[10] utilizationEnergyCharge 137912.80065918
scalar OsgEarthNet.uav[10] utilizationEnergyOverdrawMission 0
scalar OsgEarthNet.uav[10] utilizationEnergyOverdrawMaintenance 0
scalar OsgEarthNet.uav[10] utilizationCountMissions 31
scalar OsgEarthNet.uav[10] utilizationCountManeuversMission 294
scalar OsgEarthNet.uav[10] utilizationCountManeuversMaintenance 62
scalar OsgEarthNet.uav[10] utilizationCountChargeState 31
scalar OsgEarthNet.uav[10] utilizationCountOverdrawnAfterMission 0
scalar OsgEarthNet.uav[10] utilizationCountIdleState 31
scalar OsgEarthNet.uav[10] utilizationFail 0
scalar OsgEarthNet.uav[10] simulationTime 259200
scalar OsgEarthNet.uav[11] utilizationSecMission 29985.731565615
scalar OsgEarthNet.uav[11] utilizationSecMaintenance 17859.563708773
scalar OsgEarthNet.uav[11] utilizationSecCharge 174220
scalar OsgEarthNet.uav[11] utilizationSecIdle 37134.703725612
scalar OsgEarthNet.uav[11] utilizationEnergyMission 139779.55274553
scalar OsgEarthNet.uav[11] utilizationEnergyMaintenance 82500.780864716
scalar OsgEarthNet.uav[11] utilizationEnergyCharge 218272.9296875
scalar OsgEarthNet.uav[11] utilizationEnergyOverdrawMission 0
scalar OsgEarthNet.uav[11] utilizationEnergyOverdrawMaintenance 0
scalar OsgEarthNet.uav[11] utilizationCountMissions 48
scalar OsgEarthNet.uav[11] utilizationCountManeuversMission 497
scalar OsgEarthNet.uav[11] utilizationCountManeuversMaintenance 97
scalar OsgEarthNet.uav[11] utilizationCountChargeState 48
scalar OsgEarthNet.uav[11] utilizationCountOverdrawnAfterMission 0
scalar OsgEarthNet.uav[11] utilizationCountIdleState 49
scalar OsgEarthNet.uav[11] utilizationFail 0
scalar OsgEarthNet.uav[11] simulationTime 259200
scalar OsgEarthNet.uav[12] utilizationSecMission 30612.353944978
scalar OsgEarthNet.uav[12] utilizationSecMaintenance 18506.11705452
scalar OsgEarthNet.uav[12] utilizationSecCharge 180759.5280005
scalar OsgEarthNet.uav[12] utilizationSecIdle 29322
scalar OsgEarthNet.uav[12] utilizationEnergyMission 142111.16526904
scalar OsgEarthNet.uav[12] utilizationEnergyMaintenance 85046.961399078
scalar OsgEarthNet.uav[12] utilizationEnergyCharge 226683.91552734
scalar OsgEarthNet.uav[12] utilizationEnergyOverdrawMission 0
scalar OsgEarthNet.uav[12] utilizationEnergyOverdrawMaintenance 0
scalar OsgEarthNet.uav[12] utilizationCountMissions 50
scalar OsgEarthNet.uav[12] utilizationCountManeuversMission 499
scalar OsgEarthNet.uav[12] utilizationCountManeuversMaintenance 99
scalar OsgEarthNet.uav[12] utilizationCountChargeState 50
scalar OsgEarthNet.uav[12] utilizationCountOverdrawnAfterMission 0
scalar OsgEarthNet.uav[12] utilizationCountIdleState 50
scalar OsgEarthNet.uav[12] utilizationFail 0
scalar OsgEarthNet.uav[12] simulationTime 259200
scalar OsgEarthNet.uav[13] utilizationSecMission 29424.349134204
scalar OsgEarthNet.uav[13] utilizationSecMaintenance 18428.840599926
scalar OsgEarthNet.uav[13] utilizationSecCharge 175365.29560492
scalar OsgEarthNet.uav[13] utilizationSecIdle 35981.51366095
scalar OsgEarthNet.uav[13] utilizationEnergyMission 135927.27385712
scalar OsgEarthNet.uav[13] utilizationEnergyMaintenance 86012.768657684
scalar OsgEarthNet.uav[13] utilizationEnergyCharge 221652.88916016
scalar OsgEarthNet.uav[13] utilizationEnergyOverdrawMission 0
scalar OsgEarthNet.uav[13] utilizationEnergyOverdrawMaintenance 0
scalar OsgEarthNet.uav[13] utilizationCountMissions 48
scalar OsgEarthNet.uav[13] utilizationCountManeuversMission 488
scalar OsgEarthNet.uav[13] utilizationCountManeuversMaintenance 96
scalar OsgEarthNet.uav[13] utilizationCountChargeState 48
scalar OsgEarthNet.uav[13] utilizationCountOverdrawnAfterMission 0
scalar OsgEarthNet.uav[13] utilizationCountIdleState 48
scalar OsgEarthNet.uav[13] utilizationFail 0
scalar OsgEarthNet.uav[13] simulationTime 259200
scalar OsgEarthNet.uav[14] utilizationSecMission 19712.660560992
scalar OsgEarthNet.uav[14] utilizationSecMaintenance 12907.136466494
scalar OsgEarthNet.uav[14] utilizationSecCharge 116967.28495057
scalar OsgEarthNet.uav[14] utilizationSecIdle 109612.91702194
scalar OsgEarthNet.uav[14] utilizationEnergyMission 91021.536972046
scalar OsgEarthNet.uav[14] utilizationEnergyMaintenance 58756.312236786
scalar OsgEarthNet.uav[14] utilizationEnergyCharge 146642.84082031
scalar OsgEarthNet.uav[14] utilizationEnergyOverdrawMission 0
scalar OsgEarthNet.uav[14] utilizationEnergyOverdrawMaintenance 0
scalar OsgEarthNet.uav[14] utilizationCountMissions 33
scalar OsgEarthNet.uav[14] utilizationCountManeuversMission 322
scalar OsgEarthNet.uav[14] utilizationCountManeuversMaintenance 66
scalar OsgEarthNet.uav[14] utilizationCountChargeState 33
scalar OsgEarthNet.uav[14] utilizationCountOverdrawnAfterMission 0
scalar OsgEarthNet.uav[14] utilizationCountIdleState 33
scalar OsgEarthNet.uav[14] utilizationFail 0
scalar OsgEarthNet.uav[14] simulationTime 259200
scalar OsgEarthNet.uav[15] utilizationSecMission 9206.4520860627
scalar OsgEarthNet.uav[15] utilizationSecMaintenance 7676.4224167711
scalar OsgEarthNet.uav[15] utilizationSecCharge 58902.413745114
scalar OsgEarthNet.uav[15] utilizationSecIdle 183414.71075205
scalar OsgEarthNet.uav[15] utilizationEnergyMission 42214.676498413
scalar OsgEarthNet.uav[15] utilizationEnergyMaintenance 35708.694927216
scalar OsgEarthNet.uav[15] utilizationEnergyCharge 73897.925415039
scalar OsgEarthNet.uav[15] utilizationEnergyOverdrawMission 0
scalar OsgEarthNet.uav[15] utilizationEnergyOverdrawMaintenance 0
scalar OsgEarthNet.uav[15] utilizationCountMissions 17
scalar OsgEarthNet.uav[15] utilizationCountManeuversMission 158
scalar OsgEarthNet.uav[15] utilizationCountManeuversMaintenance 34
scalar OsgEarthNet.uav[15] utilizationCountChargeState 17
scalar OsgEarthNet.uav[15] utilizationCountOverdrawnAfterMission 0
scalar OsgEarthNet.uav[15] utilizationCountIdleState 17
scalar OsgEarthNet.uav[15] utilizationFail 0
scalar OsgEarthNet.uav[15] simulationTime 259200
scalar OsgEarthNet.uav[16] utilizationSecMission 25854.510902047
scalar OsgEarthNet.uav[16] utilizationSecMaintenance 18850.878474998
scalar OsgEarthNet.uav[16] utilizationSecCharge 163309.33904884
scalar OsgEarthNet.uav[16] utilizationSecIdle 51185.270574118
scalar OsgEarthNet.uav[16] utilizationEnergyMission 118689.68720245
scalar OsgEarthNet.uav[16] utilizationEnergyMaintenance 87995.392799377
scalar OsgEarthNet.uav[16] utilizationEnergyCharge 206237.95703125
scalar OsgEarthNet.uav[16] utilizationEnergyOverdrawMission 0
scalar OsgEarthNet.uav[16] utilizationEnergyOverdrawMaintenance 0
scalar OsgEarthNet.uav[16] utilizationCountMissions 45
scalar OsgEarthNet.uav[16] utilizationCountManeuversMission 426
scalar OsgEarthNet.uav[16] utilizationCountManeuversMaintenance 90
scalar OsgEarthNet.uav[16] utilizationCountChargeState 45
scalar OsgEarthNet.uav[16] utilizationCountOverdrawnAfterMission 0
scalar OsgEarthNet.uav[16] utilizationCountIdleState 45
scalar OsgEarthNet.uav[16] utilizationFail 0
scalar OsgEarthNet.uav[16] simulationTime 259200
scalar OsgEarthNet.uav[17] utilizationSecMission 17025.334163163
scalar OsgEarthNet.uav[17] utilizationSecMaintenance 10686.683560508
scalar OsgEarthNet.uav[17] utilizationSecCharge 98063.62962626
scalar OsgEarthNet.uav[17] utilizationSecIdle 133424.35165007
scalar OsgEarthNet.uav[17] utilizationEnergyMission 78914.105163574
scalar OsgEarthNet.uav[17] utilizationEnergyMaintenance 48482.186355591
scalar OsgEarthNet.uav[17] utilizationEnergyCharge 122949.5953064
scalar OsgEarthNet.uav[17] utilizationEnergyOverdrawMission 0
scalar OsgEarthNet.uav[17] utilizationEnergyOverdrawMaintenance 0
scalar OsgEarthNet.uav[17] utilizationCountMissions 28
scalar OsgEarthNet.uav[17] utilizationCountManeuversMission 272
scalar OsgEarthNet.uav[17] utilizationCountManeuversMaintenance 56
scalar OsgEarthNet.uav[17] utilizationCountChargeState 28
scalar OsgEarthNet.uav[17] utilizationCountOverdrawnAfterMission 0
scalar OsgEarthNet.uav[17] utilizationCountIdleState 28
scalar OsgEarthNet.uav[17] utilizationFail 0
scalar OsgEarthNet.uav[17] simulationTime 259200
scalar OsgEarthNet.uav[18] utilizationSecMission 20913.64472516
scalar OsgEarthNet.uav[18] utilizationSecMaintenance 11229.186043002
scalar OsgEarthNet.uav[18] utilizationSecCharge 115887.3314178
scalar OsgEarthNet.uav[18] utilizationSecIdle 111169.83681404
scalar OsgEarthNet.uav[18] utilizationEnergyMission 95817.278938293
scalar OsgEarthNet.uav[18] utilizationEnergyMaintenance 52150.674224854
scalar OsgEarthNet.uav[18] utilizationEnergyCharge 146586.29052734
scalar OsgEarthNet.uav[18] utilizationEnergyOverdrawMission 0
scalar OsgEarthNet.uav[18] utilizationEnergyOverdrawMaintenance 0
scalar OsgEarthNet.uav[18] utilizationCountMissions 32
scalar OsgEarthNet.uav[18] utilizationCountManeuversMission 342
scalar OsgEarthNet.uav[18] utilizationCountManeuversMaintenance 64
scalar OsgEarthNet.uav[18] utilizationCountChargeState 32
scalar OsgEarthNet.uav[18] utilizationCountOverdrawnAfterMission 0
scalar OsgEarthNet.uav[18] utilizationCountIdleState 32
scalar OsgEarthNet.uav[18] utilizationFail 0
scalar OsgEarthNet.uav[18] simulationTime 259200
scalar OsgEarthNet.uav[19] utilizationSecMission 698.84532193436
scalar OsgEarthNet.uav[19] utilizationSecMaintenance 323.03163670533
scalar OsgEarthNet.uav[19] utilizationSecCharge 3750
scalar OsgEarthNet.uav[19] utilizationSecIdle 254428.12204136
scalar OsgEarthNet.uav[19] utilizationEnergyMission 3174.6855010986
scalar OsgEarthNet.uav[19] utilizationEnergyMaintenance 1560.272026062
scalar OsgEarthNet.uav[19] utilizationEnergyCharge 4734.9619140625
scalar OsgEarthNet.uav[19] utilizationEnergyOverdrawMission 0
scalar OsgEarthNet.uav[19] utilizationEnergyOverdrawMaintenance 0
scalar OsgEarthNet.uav[19] utilizationCountMissions 1
scalar OsgEarthNet.uav[19] utilizationCountManeuversMission 10
scalar OsgEarthNet.uav[19] utilizationCountManeuversMaintenance 2
scalar OsgEarthNet.uav[19] utilizationCountChargeState 1
scalar OsgEarthNet.uav[19] utilizationCountOverdrawnAfterMission 0
scalar OsgEarthNet.uav[19] utilizationCountIdleState 2
scalar OsgEarthNet.uav[19] utilizationFail 0
scalar OsgEarthNet.uav[19] simulationTime 259200
scalar OsgEarthNet.uav[20] utilizationSecMission 20480.549283347
scalar OsgEarthNet.uav[20] utilizationSecMaintenance 16113.20387016
scalar OsgEarthNet.uav[20] utilizationSecCharge 134128.4706636
scalar OsgEarthNet.uav[20] utilizationSecIdle 88477.775182896
scalar OsgEarthNet.uav[20] utilizationEnergyMission 95162.686958313
scalar OsgEarthNet.uav[20] utilizationEnergyMaintenance 74996.516014099
scalar OsgEarthNet.uav[20] utilizationEnergyCharge 167946.65869141
scalar OsgEarthNet.uav[20] utilizationEnergyOverdrawMission 0
scalar OsgEarthNet.uav[20] utilizationEnergyOverdrawMaintenance 0
scalar OsgEarthNet.uav[20] utilizationCountMissions 38
scalar OsgEarthNet.uav[20] utilizationCountManeuversMission 332
scalar OsgEarthNet.uav[20] utilizationCountManeuversMaintenance 76
scalar OsgEarthNet.uav[20] utilizationCountChargeState 38
scalar OsgEarthNet.uav[20] utilizationCountOverdrawnAfterMission 0
scalar OsgEarthNet.uav[20] utilizationCountIdleState 38
scalar OsgEarthNet.uav[20] utilizationFail 0
scalar OsgEarthNet.uav[20] simulationTime 259200
scalar OsgEarthNet.uav[21] utilizationSecMission 26000.753754497
scalar OsgEarthNet.uav[21] utilizationSecMaintenance 17709.882498649
scalar OsgEarthNet.uav[21] utilizationSecCharge 157409.25258478
scalar OsgEarthNet.uav[21] utilizationSecIdle 58080.11016207
scalar OsgEarthNet.uav[21] utilizationEnergyMission 120781.77944183
scalar OsgEarthNet.uav[21] utilizationEnergyMaintenance 81413.39151001
scalar OsgEarthNet.uav[21] utilizationEnergyCharge 197821.90655518
scalar OsgEarthNet.uav[21] utilizationEnergyOverdrawMission 0
scalar OsgEarthNet.uav[21] utilizationEnergyOverdrawMaintenance 0
scalar OsgEarthNet.uav[21] utilizationCountMissions 44
scalar OsgEarthNet.uav[21] utilizationCountManeuversMission 433
scalar OsgEarthNet.uav[21] utilizationCountManeuversMaintenance 88
scalar OsgEarthNet.uav[21] utilizationCountChargeState 44
scalar OsgEarthNet.uav[21] utilizationCountOverdrawnAfterMission 0
scalar OsgEarthNet.uav[21] utilizationCountIdleState 44
scalar OsgEarthNet.uav[21] utilizationFail 0
scalar OsgEarthNet.uav[21] simulationTime 259200
scalar OsgEarthNet.uav[22] utilizationSecMission 21413.106514573
scalar OsgEarthNet.uav[22] utilizationSecMaintenance 14397.957346654
scalar OsgEarthNet.uav[22] utilizationSecCharge 131415.40980754
scalar OsgEarthNet.uav[22] utilizationSecIdle 91973.525331232
scalar OsgEarthNet.uav[22] utilizationEnergyMission 98212.760555267
scalar OsgEarthNet.uav[22] utilizationEnergyMaintenance 66558.086437225
scalar OsgEarthNet.uav[22] utilizationEnergyCharge 164927.02539062
scalar OsgEarthNet.uav[22] utilizationEnergyOverdrawMission 0
scalar OsgEarthNet.uav[22] utilizationEnergyOverdrawMaintenance 0
scalar OsgEarthNet.uav[22] utilizationCountMissions 36
scalar OsgEarthNet.uav[22] utilizationCountManeuversMission 343
scalar OsgEarthNet.uav[22] utilizationCountManeuversMaintenance 72
scalar OsgEarthNet.uav[22] utilizationCountChargeState 36
scalar OsgEarthNet.uav[22] utilizationCountOverdrawnAfterMission 0
scalar OsgEarthNet.uav[22] utilizationCountIdleState 36
scalar OsgEarthNet.uav[22] utilizationFail 0
scalar OsgEarthNet.uav[22] simulationTime 259200
scalar OsgEarthNet.uav[23] utilizationSecMission 533.25626237336
scalar OsgEarthNet.uav[23] utilizationSecMaintenance 458.46460240178
scalar OsgEarthNet.uav[23] utilizationSecCharge 3550
scalar OsgEarthNet.uav[23] utilizationSecIdle 254658.27813522
scalar OsgEarthNet.uav[23] utilizationEnergyMission 2368.3352355957
scalar OsgEarthNet.uav[23] utilizationEnergyMaintenance 1999.9226341248
scalar OsgEarthNet.uav[23] utilizationEnergyCharge 4412.4560546875
scalar OsgEarthNet.uav[23] utilizationEnergyOverdrawMission 0
scalar OsgEarthNet.uav[23] utilizationEnergyOverdrawMaintenance 0
scalar OsgEarthNet.uav[23] utilizationCountMissions 1
scalar OsgEarthNet.uav[23] utilizationCountManeuversMission 8
scalar OsgEarthNet.uav[23] utilizationCountManeuversMaintenance 2
scalar OsgEarthNet.uav[23] utilizationCountChargeState 1
scalar OsgEarthNet.uav[23] utilizationCountOverdrawnAfterMission 0
scalar OsgEarthNet.uav[23] utilizationCountIdleState 2
scalar OsgEarthNet.uav[23] utilizationFail 0
scalar OsgEarthNet.uav[23] simulationTime 259200
scalar OsgEarthNet.uav[24] utilizationSecMission 30761.537856893
scalar OsgEarthNet.uav[24] utilizationSecMaintenance 16503.461281504
scalar OsgEarthNet.uav[24] utilizationSecCharge 172377.48926937
scalar OsgEarthNet.uav[24] utilizationSecIdle 39557.510592228
scalar OsgEarthNet.uav[24] utilizationEnergyMission 140305.83068085
scalar OsgEarthNet.uav[24] utilizationEnergyMaintenance 76792.24269104
scalar OsgEarthNet.uav[24] utilizationEnergyCharge 216611.07739258
scalar OsgEarthNet.uav[24] utilizationEnergyOverdrawMission 0
scalar OsgEarthNet.uav[24] utilizationEnergyOverdrawMaintenance 0
scalar OsgEarthNet.uav[24] utilizationCountMissions 48
scalar OsgEarthNet.uav[24] utilizationCountManeuversMission 500
scalar OsgEarthNet.uav[24] utilizationCountManeuversMaintenance 96
scalar OsgEarthNet.uav[24] utilizationCountChargeState 48
scalar OsgEarthNet.uav[24] utilizationCountOverdrawnAfterMission 0
scalar OsgEarthNet.uav[24] utilizationCountIdleState 48
scalar OsgEarthNet.uav[24] utilizationFail 0
scalar OsgEarthNet.uav[24] simulationTime 259200
scalar OsgEarthNet.uav[25] utilizationSecMission 15495.32045472
scalar OsgEarthNet.uav[25] utilizationSecMaintenance 9158.8204988861
scalar OsgEarthNet.uav[25] utilizationSecCharge 88535.149989166
scalar OsgEarthNet.uav[25] utilizationSecIdle 146010.70805723
scalar OsgEarthNet.uav[25] utilizationEnergyMission 71651.653831482
scalar OsgEarthNet.uav[25] utilizationEnergyMaintenance 42641.601055145
scalar OsgEarthNet.uav[25] utilizationEnergyCharge 111442.23681641
scalar OsgEarthNet.uav[25] utilizationEnergyOverdrawMission 0
scalar OsgEarthNet.uav[25] utilizationEnergyOverdrawMaintenance 0
scalar OsgEarthNet.uav[25] utilizationCountMissions 25
scalar OsgEarthNet.uav[25] utilizationCountManeuversMission 258
scalar OsgEarthNet.uav[25] utilizationCountManeuversMaintenance 50
scalar OsgEarthNet.uav[25] utilizationCountChargeState 25
scalar OsgEarthNet.uav[25] utilizationCountOverdrawnAfterMission 0
scalar OsgEarthNet.uav[25] utilizationCountIdleState 25
scalar OsgEarthNet.uav[25] utilizationFail 0
scalar OsgEarthNet.uav[25] simulationTime 259200
scalar OsgEarthNet.uav[26] utilizationSecMission 29276.940176678
scalar OsgEarthNet.uav[26] utilizationSecMaintenance 17023.409960465
scalar OsgEarthNet.uav[26] utilizationSecCharge 170225.00444093
scalar OsgEarthNet.uav[26] utilizationSecIdle 42674.644421923
scalar OsgEarthNet.uav[26] utilizationEnergyMission 136649.43484497
scalar OsgEarthNet.uav[26] utilizationEnergyMaintenance 78913.436092377
scalar OsgEarthNet.uav[26] utilizationEnergyCharge 214612.48828125
scalar OsgEarthNet.uav[26] utilizationEnergyOverdrawMission 0
scalar OsgEarthNet.uav[26] utilizationEnergyOverdrawMaintenance 0
scalar OsgEarthNet.uav[26] utilizationCountMissions 47
scalar OsgEarthNet.uav[26] utilizationCountManeuversMission 490
scalar OsgEarthNet.uav[26] utilizationCountManeuversMaintenance 94
scalar OsgEarthNet.uav[26] utilizationCountChargeState 47
scalar OsgEarthNet.uav[26] utilizationCountOverdrawnAfterMission 0
scalar OsgEarthNet.uav[26] utilizationCountIdleState 47
scalar OsgEarthNet.uav[26] utilizationFail 0
scalar OsgEarthNet.uav[26] simulationTime 259200
scalar OsgEarthNet.uav[27] utilizationSecMission 27103.8057019
scalar OsgEarthNet.uav[27] utilizationSecMaintenance 17442.525936039
scalar OsgEarthNet.uav[27] utilizationSecCharge 164903.4535516
scalar OsgEarthNet.uav[27] utilizationSecIdle 49750.213810457
scalar OsgEarthNet.uav[27] utilizationEnergyMission 126812.11766815
scalar OsgEarthNet.uav[27] utilizationEnergyMaintenance 80702.146942139
scalar OsgEarthNet.uav[27] utilizationEnergyCharge 207399.3425293
scalar OsgEarthNet.uav[27] utilizationEnergyOverdrawMission 0
scalar OsgEarthNet.uav[27] utilizationEnergyOverdrawMaintenance 0
scalar OsgEarthNet.uav[27] utilizationCountMissions 45
scalar OsgEarthNet.uav[27] utilizationCountManeuversMission 443
scalar OsgEarthNet.uav[27] utilizationCountManeuversMaintenance 90
scalar OsgEarthNet.uav[27] utilizationCountChargeState 45
scalar OsgEarthNet.uav[27] utilizationCountOverdrawnAfterMission 0
scalar OsgEarthNet.uav[27] utilizationCountIdleState 45
scalar OsgEarthNet.uav[27] utilizationFail 0
scalar OsgEarthNet.uav[27] simulationTime 259200
scalar OsgEarthNet.uav[28] utilizationSecMission 25347.067372587
scalar OsgEarthNet.uav[28] utilizationSecMaintenance 15569.128270546
scalar OsgEarthNet.uav[28] utilizationSecCharge 150370
scalar OsgEarthNet.uav[28] utilizationSecIdle 67913.803356867
scalar OsgEarthNet.uav[28] utilizationEnergyMission 117621.57163239
scalar OsgEarthNet.uav[28] utilizationEnergyMaintenance 72124.968029022
scalar OsgEarthNet.uav[28] utilizationEnergyCharge 189237.25488281
scalar OsgEarthNet.uav[28] utilizationEnergyOverdrawMission 0
scalar OsgEarthNet.uav[28] utilizationEnergyOverdrawMaintenance 24.397930145264
scalar OsgEarthNet.uav[28] utilizationCountMissions 41
scalar OsgEarthNet.uav[28] utilizationCountManeuversMission 416
scalar OsgEarthNet.uav[28] utilizationCountManeuversMaintenance 82
scalar OsgEarthNet.uav[28] utilizationCountChargeState 41
scalar OsgEarthNet.uav[28] utilizationCountOverdrawnAfterMission 1
scalar OsgEarthNet.uav[28] utilizationCountIdleState 42
scalar OsgEarthNet.uav[28] utilizationFail 0
scalar OsgEarthNet.uav[28] simulationTime 259200
scalar OsgEarthNet.uav[29] utilizationSecMission 26600.754619872
scalar OsgEarthNet.uav[29] utilizationSecMaintenance 18017.473940992
scalar OsgEarthNet.uav[29] utilizationSecCharge 162095.87371282
scalar OsgEarthNet.uav[29] utilizationSecIdle 52485.896726312
scalar OsgEarthNet.uav[29] utilizationEnergyMission 123113.02799606
scalar OsgEarthNet.uav[29] utilizationEnergyMaintenance 83387.875232697
scalar OsgEarthNet.uav[29] utilizationEnergyCharge 204247.54931641
scalar OsgEarthNet.uav[29] utilizationEnergyOverdrawMission 0
scalar OsgEarthNet.uav[29] utilizationEnergyOverdrawMaintenance 0
scalar OsgEarthNet.uav[29] utilizationCountMissions 45
scalar OsgEarthNet.uav[29] utilizationCountManeuversMission 428
scalar OsgEarthNet.uav[29] utilizationCountManeuversMaintenance 90
scalar OsgEarthNet.uav[29] utilizationCountChargeState 45
scalar OsgEarthNet.uav[29] utilizationCountOverdrawnAfterMission 0
scalar OsgEarthNet.uav[29] utilizationCountIdleState 45
scalar OsgEarthNet.uav[29] utilizationFail 0
scalar OsgEarthNet.uav[29] simulationTime 259200
scalar OsgEarthNet.uav[30] utilizationSecMission 27726.7436055
scalar OsgEarthNet.uav[30] utilizationSecMaintenance 19173.362449394
scalar OsgEarthNet.uav[30] utilizationSecCharge 172697.75313196
scalar OsgEarthNet.uav[30] utilizationSecIdle 39602.139813144
scalar OsgEarthNet.uav[30] utilizationEnergyMission 128271.68603897
scalar OsgEarthNet.uav[30] utilizationEnergyMaintenance 89666.99641037
scalar OsgEarthNet.uav[30] utilizationEnergyCharge 217698.69433594
scalar OsgEarthNet.uav[30] utilizationEnergyOverdrawMission 0
scalar OsgEarthNet.uav[30] utilizationEnergyOverdrawMaintenance 0
scalar OsgEarthNet.uav[30] utilizationCountMissions 47
scalar OsgEarthNet.uav[30] utilizationCountManeuversMission 446
scalar OsgEarthNet.uav[30] utilizationCountManeuversMaintenance 94
scalar OsgEarthNet.uav[30] utilizationCountChargeState 47
scalar OsgEarthNet.uav[30] utilizationCountOverdrawnAfterMission 0
scalar OsgEarthNet.uav[30] utilizationCountIdleState 47
scalar OsgEarthNet.uav[30] utilizationFail 0
scalar OsgEarthNet.uav[30] simulationTime 259200
scalar OsgEarthNet.uav[31] utilizationSecMission 25300.556208347
scalar OsgEarthNet.uav[31] utilizationSecMaintenance 20726.049635424
scalar OsgEarthNet.uav[31] utilizationSecCharge 168520
scalar OsgEarthNet.uav[31] utilizationSecIdle 44653.393156229
scalar OsgEarthNet.uav[31] utilizationEnergyMission 117547.08670044
scalar OsgEarthNet.uav[31] utilizationEnergyMaintenance 94522.013420105
scalar OsgEarthNet.uav[31] utilizationEnergyCharge 212142.37451172
scalar OsgEarthNet.uav[31] utilizationEnergyOverdrawMission 0
scalar OsgEarthNet.uav[31] utilizationEnergyOverdrawMaintenance 0
scalar OsgEarthNet.uav[31] utilizationCountMissions 46
scalar OsgEarthNet.uav[31] utilizationCountManeuversMission 417
scalar OsgEarthNet.uav[31] utilizationCountManeuversMaintenance 92
scalar OsgEarthNet.uav[31] utilizationCountChargeState 46
scalar OsgEarthNet.uav[31] utilizationCountOverdrawnAfterMission 0
scalar OsgEarthNet.uav[31] utilizationCountIdleState 47
scalar OsgEarthNet.uav[31] utilizationFail 0
scalar OsgEarthNet.uav[31] simulationTime 259200
scalar OsgEarthNet.uav[32] utilizationSecMission 29672.033438759
scalar OsgEarthNet.uav[32] utilizationSecMaintenance 18114.348898678
scalar OsgEarthNet.uav[32] utilizationSecCharge 173184.39704865
scalar OsgEarthNet.uav[32] utilizationSecIdle 38229.219613916
scalar OsgEarthNet.uav[32] utilizationEnergyMission 136804.99919891
scalar OsgEarthNet.uav[32] utilizationEnergyMaintenance 83054.591159821
scalar OsgEarthNet.uav[32] utilizationEnergyCharge 217878.63598633
scalar OsgEarthNet.uav[32] utilizationEnergyOverdrawMission 0
scalar OsgEarthNet.uav[32] utilizationEnergyOverdrawMaintenance 0
scalar OsgEarthNet.uav[32] utilizationCountMissions 48
scalar OsgEarthNet.uav[32] utilizationCountManeuversMission 476
scalar OsgEarthNet.uav[32] utilizationCountManeuversMaintenance 96
scalar OsgEarthNet.uav[32] utilizationCountChargeState 48
scalar OsgEarthNet.uav[32] utilizationCountOverdrawnAfterMission 0
scalar OsgEarthNet.uav[32] utilizationCountIdleState 48
scalar OsgEarthNet.uav[32] utilizationFail 0
scalar OsgEarthNet.uav[32] simulationTime 259200
scalar OsgEarthNet.uav[33] utilizationSecMission 30583.905809897
scalar OsgEarthNet.uav[33] utilizationSecMaintenance 18204.093190103
scalar OsgEarthNet.uav[33] utilizationSecCharge 175240
scalar OsgEarthNet.uav[33] utilizationSecIdle 35172
scalar OsgEarthNet.uav[33] utilizationEnergyMission 139732.35307312
scalar OsgEarthNet.uav[33] utilizationEnergyMaintenance 85094.734556417
scalar OsgEarthNet.uav[33] utilizationEnergyCharge 220002.35449219
scalar OsgEarthNet.uav[33] utilizationEnergyOverdrawMission 0
scalar OsgEarthNet.uav[33] utilizationEnergyOverdrawMaintenance 0
scalar OsgEarthNet.uav[33] utilizationCountMissions 49
scalar OsgEarthNet.uav[33] utilizationCountManeuversMission 498
scalar OsgEarthNet.uav[33] utilizationCountManeuversMaintenance 97
scalar OsgEarthNet.uav[33] utilizationCountChargeState 48
scalar OsgEarthNet.uav[33] utilizationCountOverdrawnAfterMission 0
scalar OsgEarthNet.uav[33] utilizationCountIdleState 49
scalar OsgEarthNet.uav[33] utilizationFail 0
scalar OsgEarthNet.uav[33] simulationTime 259200
scalar OsgEarthNet.uav[34] utilizationSecMission 25703.153033978
scalar OsgEarthNet.uav[34] utilizationSecMaintenance 19201.335252939
scalar OsgEarthNet.uav[34] utilizationSecCharge 164599.16446361
scalar OsgEarthNet.uav[34] utilizationSecIdle 49696.346249471
scalar OsgEarthNet.uav[34] utilizationEnergyMission 119981.75432587
scalar OsgEarthNet.uav[34] utilizationEnergyMaintenance 88710.4376297
scalar OsgEarthNet.uav[34] utilizationEnergyCharge 208198.3203125
scalar OsgEarthNet.uav[34] utilizationEnergyOverdrawMission 0
scalar OsgEarthNet.uav[34] utilizationEnergyOverdrawMaintenance 0
scalar OsgEarthNet.uav[34] utilizationCountMissions 45
scalar OsgEarthNet.uav[34] utilizationCountManeuversMission 415
scalar OsgEarthNet.uav[34] utilizationCountManeuversMaintenance 90
scalar OsgEarthNet.uav[34] utilizationCountChargeState 45
scalar OsgEarthNet.uav[34] utilizationCountOverdrawnAfterMission 0
scalar OsgEarthNet.uav[34] utilizationCountIdleState 45
scalar OsgEarthNet.uav[34] utilizationFail 0
scalar OsgEarthNet.uav[34] simulationTime 259200
scalar OsgEarthNet.uav[35] utilizationSecMission 1774.3482165212
scalar OsgEarthNet.uav[35] utilizationSecMaintenance 362.55698321565
scalar OsgEarthNet.uav[35] utilizationSecCharge 7710
scalar OsgEarthNet.uav[35] utilizationSecIdle 249353.09380026
scalar OsgEarthNet.uav[35] utilizationEnergyMission 8191.9938812256
scalar OsgEarthNet.uav[35] utilizationEnergyMaintenance 1718.866569519
scalar OsgEarthNet.uav[35] utilizationEnergyCharge 9810.9169921875
scalar OsgEarthNet.uav[35] utilizationEnergyOverdrawMission 0
scalar OsgEarthNet.uav[35] utilizationEnergyOverdrawMaintenance 0
scalar OsgEarthNet.uav[35] utilizationCountMissions 2
scalar OsgEarthNet.uav[35] utilizationCountManeuversMission 28
scalar OsgEarthNet.uav[35] utilizationCountManeuversMaintenance 4
scalar OsgEarthNet.uav[35] utilizationCountChargeState 2
scalar OsgEarthNet.uav[35] utilizationCountOverdrawnAfterMission 0
scalar OsgEarthNet.uav[35] utilizationCountIdleState 3
scalar OsgEarthNet.uav[35] utilizationFail 0
scalar OsgEarthNet.uav[35] simulationTime 259200
scalar OsgEarthNet.uav[36] utilizationSecMission 2724.9911704578
scalar OsgEarthNet.uav[36] utilizationSecMaintenance 2251.579519241
scalar OsgEarthNet.uav[36] utilizationSecCharge 17790
scalar OsgEarthNet.uav[36] utilizationSecIdle 236433.4283103
scalar OsgEarthNet.uav[36] utilizationEnergyMission 12264.533813477
scalar OsgEarthNet.uav[36] utilizationEnergyMaintenance 10018.728767395
scalar OsgEarthNet.uav[36] utilizationEnergyCharge 22155.638671875
scalar OsgEarthNet.uav[36] utilizationEnergyOverdrawMission 0
scalar OsgEarthNet.uav[36] utilizationEnergyOverdrawMaintenance 0
scalar OsgEarthNet.uav[36] utilizationCountMissions 5
scalar OsgEarthNet.uav[36] utilizationCountManeuversMission 42
scalar OsgEarthNet.uav[36] utilizationCountManeuversMaintenance 10
scalar OsgEarthNet.uav[36] utilizationCountChargeState 5
scalar OsgEarthNet.uav[36] utilizationCountOverdrawnAfterMission 0
scalar OsgEarthNet.uav[36] utilizationCountIdleState 6
scalar OsgEarthNet.uav[36] utilizationFail 0
scalar OsgEarthNet.uav[36] simulationTime 259200
scalar OsgEarthNet.uav[37] utilizationSecMission 27918.309747461
scalar OsgEarthNet.uav[37] utilizationSecMaintenance 20639.688745156
scalar OsgEarthNet.uav[37] utilizationSecCharge 179520
scalar OsgEarthNet.uav[37] utilizationSecIdle 31122.000507383
scalar OsgEarthNet.uav[37] utilizationEnergyMission 129146.12173462
scalar OsgEarthNet.uav[37] utilizationEnergyMaintenance 97398.570265401
scalar OsgEarthNet.uav[37] utilizationEnergyCharge 225428.31005859
scalar OsgEarthNet.uav[37] utilizationEnergyOverdrawMission 0
scalar OsgEarthNet.uav[37] utilizationEnergyOverdrawMaintenance 0
scalar OsgEarthNet.uav[37] utilizationCountMissions 49
scalar OsgEarthNet.uav[37] utilizationCountManeuversMission 453
scalar OsgEarthNet.uav[37] utilizationCountManeuversMaintenance 99
scalar OsgEarthNet.uav[37] utilizationCountChargeState 49
scalar OsgEarthNet.uav[37] utilizationCountOverdrawnAfterMission 0
scalar OsgEarthNet.uav[37] utilizationCountIdleState 50
scalar OsgEarthNet.uav[37] utilizationFail 0
scalar OsgEarthNet.uav[37] simulationTime 259200
scalar OsgEarthNet.uav[38] utilizationSecMission 29123.798021832
scalar OsgEarthNet.uav[38] utilizationSecMaintenance 19464.661260817
scalar OsgEarthNet.uav[38] utilizationSecCharge 179010
scalar OsgEarthNet.uav[38] utilizationSecIdle 31601.539717351
scalar OsgEarthNet.uav[38] utilizationEnergyMission 135105.01524353
scalar OsgEarthNet.uav[38] utilizationEnergyMaintenance 89349.503501892
scalar OsgEarthNet.uav[38] utilizationEnergyCharge 224585.89355469
scalar OsgEarthNet.uav[38] utilizationEnergyOverdrawMission 0
scalar OsgEarthNet.uav[38] utilizationEnergyOverdrawMaintenance 0
scalar OsgEarthNet.uav[38] utilizationCountMissions 49
scalar OsgEarthNet.uav[38] utilizationCountManeuversMission 484
scalar OsgEarthNet.uav[38] utilizationCountManeuversMaintenance 98
scalar OsgEarthNet.uav[38] utilizationCountChargeState 49
scalar OsgEarthNet.uav[38] utilizationCountOverdrawnAfterMission 0
scalar OsgEarthNet.uav[38] utilizationCountIdleState 50
scalar OsgEarthNet.uav[38] utilizationFail 0
scalar OsgEarthNet.uav[38] simulationTime 259200
scalar OsgEarthNet.uav[39] utilizationSecMission 12710.479892756
scalar OsgEarthNet.uav[39] utilizationSecMaintenance 9071.7167676285
scalar OsgEarthNet.uav[39] utilizationSecCharge 80250
scalar OsgEarthNet.uav[39] utilizationSecIdle 157167.80233962
scalar OsgEarthNet.uav[39] utilizationEnergyMission 58091.084281921
scalar OsgEarthNet.uav[39] utilizationEnergyMaintenance 42620.729576111
scalar OsgEarthNet.uav[39] utilizationEnergyCharge 100676.94140625
scalar OsgEarthNet.uav[39] utilizationEnergyOverdrawMission 0
scalar OsgEarthNet.uav[39] utilizationEnergyOverdrawMaintenance 0
scalar OsgEarthNet.uav[39] utilizationCountMissions 22
scalar OsgEarthNet.uav[39] utilizationCountManeuversMission 206
scalar OsgEarthNet.uav[39] utilizationCountManeuversMaintenance 44
scalar OsgEarthNet.uav[39] utilizationCountChargeState 22
scalar OsgEarthNet.uav[39] utilizationCountOverdrawnAfterMission 0
scalar OsgEarthNet.uav[39] utilizationCountIdleState 23
scalar OsgEarthNet.uav[39] utilizationFail 0
scalar OsgEarthNet.uav[39] simulationTime 259200
scalar OsgEarthNet.uav[40] utilizationSecMission 10593.491445812
scalar OsgEarthNet.uav[40] utilizationSecMaintenance 7153.2985393662
scalar OsgEarthNet.uav[40] utilizationSecCharge 65570
scalar OsgEarthNet.uav[40] utilizationSecIdle 175883.20901482
scalar OsgEarthNet.uav[40] utilizationEnergyMission 48764.599990845
scalar OsgEarthNet.uav[40] utilizationEnergyMaintenance 33330.32459259
scalar OsgEarthNet.uav[40] utilizationEnergyCharge 82343.298828125
scalar OsgEarthNet.uav[40] utilizationEnergyOverdrawMission 0
scalar OsgEarthNet.uav[40] utilizationEnergyOverdrawMaintenance 0
scalar OsgEarthNet.uav[40] utilizationCountMissions 18
scalar OsgEarthNet.uav[40] utilizationCountManeuversMission 173
scalar OsgEarthNet.uav[40] utilizationCountManeuversMaintenance 36
scalar OsgEarthNet.uav[40] utilizationCountChargeState 18
scalar OsgEarthNet.uav[40] utilizationCountOverdrawnAfterMission 0
scalar OsgEarthNet.uav[40] utilizationCountIdleState 18
scalar OsgEarthNet.uav[40] utilizationFail 0
scalar OsgEarthNet.uav[40] simulationTime 259200
scalar OsgEarthNet.uav[41] utilizationSecMission 29216.543524676
scalar OsgEarthNet.uav[41] utilizationSecMaintenance 18702.0384591
scalar OsgEarthNet.uav[41] utilizationSecCharge 174470.45402989
scalar OsgEarthNet.uav[41] utilizationSecIdle 36810.962986334
scalar OsgEarthNet.uav[41] utilizationEnergyMission 134956.21372223
scalar OsgEarthNet.uav[41] utilizationEnergyMaintenance 86291.705821991
scalar OsgEarthNet.uav[41] utilizationEnergyCharge 220905.14379883
scalar OsgEarthNet.uav[41] utilizationEnergyOverdrawMission 0
scalar OsgEarthNet.uav[41] utilizationEnergyOverdrawMaintenance 0
scalar OsgEarthNet.uav[41] utilizationCountMissions 48
scalar OsgEarthNet.uav[41] utilizationCountManeuversMission 476
scalar OsgEarthNet.uav[41] utilizationCountManeuversMaintenance 96
scalar OsgEarthNet.uav[41] utilizationCountChargeState 48
scalar OsgEarthNet.uav[41] utilizationCountOverdrawnAfterMission 0
scalar OsgEarthNet.uav[41] utilizationCountIdleState 47
scalar OsgEarthNet.uav[41] utilizationFail 0
scalar OsgEarthNet.uav[41] simulationTime 259200
scalar OsgEarthNet.uav[42] utilizationSecMission 26266.073299915
scalar OsgEarthNet.uav[42] utilizationSecMaintenance 17773.259699852
scalar OsgEarthNet.uav[42] utilizationSecCharge 160334.31577941
scalar OsgEarthNet.uav[42] utilizationSecIdle 54826.350220821
scalar OsgEarthNet.uav[42] utilizationEnergyMission 121889.43480301
scalar OsgEarthNet.uav[42] utilizationEnergyMaintenance 81121.653675079
scalar OsgEarthNet.uav[42] utilizationEnergyCharge 202120.30126953
scalar OsgEarthNet.uav[42] utilizationEnergyOverdrawMission 0
scalar OsgEarthNet.uav[42] utilizationEnergyOverdrawMaintenance 0
scalar OsgEarthNet.uav[42] utilizationCountMissions 44
scalar OsgEarthNet.uav[42] utilizationCountManeuversMission 423
scalar OsgEarthNet.uav[42] utilizationCountManeuversMaintenance 88
scalar OsgEarthNet.uav[42] utilizationCountChargeState 44
scalar OsgEarthNet.uav[42] utilizationCountOverdrawnAfterMission 0
scalar OsgEarthNet.uav[42] utilizationCountIdleState 44
scalar OsgEarthNet.uav[42] utilizationFail 0
scalar OsgEarthNet.uav[42] simulationTime 259200
scalar OsgEarthNet.uav[43] utilizationSecMission 17387.466060582
scalar OsgEarthNet.uav[43] utilizationSecMaintenance 13587.441302347
scalar OsgEarthNet.uav[43] utilizationSecCharge 114260
scalar OsgEarthNet.uav[43] utilizationSecIdle 113965.09163707
scalar OsgEarthNet.uav[43] utilizationEnergyMission 80009.765777588
scalar OsgEarthNet.uav[43] utilizationEnergyMaintenance 63234.131923676
scalar OsgEarthNet.uav[43] utilizationEnergyCharge 142710.37573242
scalar OsgEarthNet.uav[43] utilizationEnergyOverdrawMission 0
scalar OsgEarthNet.uav[43] utilizationEnergyOverdrawMaintenance 0
scalar OsgEarthNet.uav[43] utilizationCountMissions 32
scalar OsgEarthNet.uav[43] utilizationCountManeuversMission 272
scalar OsgEarthNet.uav[43] utilizationCountManeuversMaintenance 64
scalar OsgEarthNet.uav[43] utilizationCountChargeState 32
scalar OsgEarthNet.uav[43] utilizationCountOverdrawnAfterMission 0
scalar OsgEarthNet.uav[43] utilizationCountIdleState 32
scalar OsgEarthNet.uav[43] utilizationFail 0
scalar OsgEarthNet.uav[43] simulationTime 259200
scalar OsgEarthNet.uav[44] utilizationSecMission 18568.88354039
scalar OsgEarthNet.uav[44] utilizationSecMaintenance 14264.978526961
scalar OsgEarthNet.uav[44] utilizationSecCharge 120450
scalar OsgEarthNet.uav[44] utilizationSecIdle 105916.13693265
scalar OsgEarthNet.uav[44] utilizationEnergyMission 86162.626052856
scalar OsgEarthNet.uav[44] utilizationEnergyMaintenance 65461.881889343
scalar OsgEarthNet.uav[44] utilizationEnergyCharge 151886.43310547
scalar OsgEarthNet.uav[44] utilizationEnergyOverdrawMission 0
scalar OsgEarthNet.uav[44] utilizationEnergyOverdrawMaintenance 0
scalar OsgEarthNet.uav[44] utilizationCountMissions 33
scalar OsgEarthNet.uav[44] utilizationCountManeuversMission 300
scalar OsgEarthNet.uav[44] utilizationCountManeuversMaintenance 66
scalar OsgEarthNet.uav[44] utilizationCountChargeState 33
scalar OsgEarthNet.uav[44] utilizationCountOverdrawnAfterMission 0
scalar OsgEarthNet.uav[44] utilizationCountIdleState 33
scalar OsgEarthNet.uav[44] utilizationFail 0
scalar OsgEarthNet.uav[44] simulationTime 259200
scalar OsgEarthNet.uav[45] utilizationSecMission 23765.483765877
scalar OsgEarthNet.uav[45] utilizationSecMaintenance 16775.500337396
scalar OsgEarthNet.uav[45] utilizationSecCharge 147701.13934467
scalar OsgEarthNet.uav[45] utilizationSecIdle 70957.875552054
scalar OsgEarthNet.uav[45] utilizationEnergyMission 109123.93661499
scalar OsgEarthNet.uav[45] utilizationEnergyMaintenance 78889.414283752
scalar OsgEarthNet.uav[45] utilizationEnergyCharge 184564.65002441
scalar OsgEarthNet.uav[45] utilizationEnergyOverdrawMission 0
scalar OsgEarthNet.uav[45] utilizationEnergyOverdrawMaintenance 0
scalar OsgEarthNet.uav[45] utilizationCountMissions 42
scalar OsgEarthNet.uav[45] utilizationCountManeuversMission 383
scalar OsgEarthNet.uav[45] utilizationCountManeuversMaintenance 84
scalar OsgEarthNet.uav[45] utilizationCountChargeState 42
scalar OsgEarthNet.uav[45] utilizationCountOverdrawnAfterMission 0
scalar OsgEarthNet.uav[45] utilizationCountIdleState 40
scalar OsgEarthNet.uav[45] utilizationFail 0
scalar OsgEarthNet.uav[45] simulationTime 259200
scalar OsgEarthNet.uav[46] utilizationSecMission 26485.010470639
scalar OsgEarthNet.uav[46] utilizationSecMaintenance 18758.484581957
scalar OsgEarthNet.uav[46] utilizationSecCharge 165830
scalar OsgEarthNet.uav[46] utilizationSecIdle 48126.503947404
scalar OsgEarthNet.uav[46] utilizationEnergyMission 122548.26066208
scalar OsgEarthNet.uav[46] utilizationEnergyMaintenance 86298.686286926
scalar OsgEarthNet.uav[46] utilizationEnergyCharge 208575.86157227
scalar OsgEarthNet.uav[46] utilizationEnergyOverdrawMission 0
scalar OsgEarthNet.uav[46] utilizationEnergyOverdrawMaintenance 0
scalar OsgEarthNet.uav[46] utilizationCountMissions 46
scalar OsgEarthNet.uav[46] utilizationCountManeuversMission 436
scalar OsgEarthNet.uav[46] utilizationCountManeuversMaintenance 92
scalar OsgEarthNet.uav[46] utilizationCountChargeState 46
scalar OsgEarthNet.uav[46] utilizationCountOverdrawnAfterMission 0
scalar OsgEarthNet.uav[46] utilizationCountIdleState 44
scalar OsgEarthNet.uav[46] utilizationFail 0
scalar OsgEarthNet.uav[46] simulationTime 259200
scalar OsgEarthNet.uav[47] utilizationSecMission 27614.146011286
scalar OsgEarthNet.uav[47] utilizationSecMaintenance 19157.892575293
scalar OsgEarthNet.uav[47] utilizationSecCharge 172473.94978374
scalar OsgEarthNet.uav[47] utilizationSecIdle 39954.010629684
scalar OsgEarthNet.uav[47] utilizationEnergyMission 127457.99365234
scalar OsgEarthNet.uav[47] utilizationEnergyMaintenance 89649.610839844
scalar OsgEarthNet.uav[47] utilizationEnergyCharge 216833.24658203
scalar OsgEarthNet.uav[47] utilizationEnergyOverdrawMission 0
scalar OsgEarthNet.uav[47] utilizationEnergyOverdrawMaintenance 0
scalar OsgEarthNet.uav[47] utilizationCountMissions 48
scalar OsgEarthNet.uav[47] utilizationCountManeuversMission 453
scalar OsgEarthNet.uav[47] utilizationCountManeuversMaintenance 96
scalar OsgEarthNet.uav[47] utilizationCountChargeState 48
scalar OsgEarthNet.uav[47] utilizationCountOverdrawnAfterMission 0
scalar OsgEarthNet.uav[47] utilizationCountIdleState 47
scalar OsgEarthNet.uav[47] utilizationFail 0
scalar OsgEarthNet.uav[47] simulationTime 259200
scalar OsgEarthNet.uav[48] utilizationSecMission 28842.179536865
scalar OsgEarthNet.uav[48] utilizationSecMaintenance 19603.319730524
scalar OsgEarthNet.uav[48] utilizationSecCharge 175225.3246222
scalar OsgEarthNet.uav[48] utilizationSecIdle 35529.175110411
scalar OsgEarthNet.uav[48] utilizationEnergyMission 132844.89530563
scalar OsgEarthNet.uav[48] utilizationEnergyMaintenance 90303.69593811
scalar OsgEarthNet.uav[48] utilizationEnergyCharge 220303.89916992
scalar OsgEarthNet.uav[48] utilizationEnergyOverdrawMission 0
scalar OsgEarthNet.uav[48] utilizationEnergyOverdrawMaintenance 0
scalar OsgEarthNet.uav[48] utilizationCountMissions 49
scalar OsgEarthNet.uav[48] utilizationCountManeuversMission 468
scalar OsgEarthNet.uav[48] utilizationCountManeuversMaintenance 98
scalar OsgEarthNet.uav[48] utilizationCountChargeState 49
scalar OsgEarthNet.uav[48] utilizationCountOverdrawnAfterMission 0
scalar OsgEarthNet.uav[48] utilizationCountIdleState 47
scalar OsgEarthNet.uav[48] utilizationFail 0
scalar OsgEarthNet.uav[48] simulationTime 259200
scalar OsgEarthNet.uav[49] utilizationSecMission 23664.703290432
scalar OsgEarthNet.uav[49] utilizationSecMaintenance 18424.652015468
scalar OsgEarthNet.uav[49] utilizationSecCharge 155607.25157657
scalar OsgEarthNet.uav[49] utilizationSecIdle 61503.392117534
scalar OsgEarthNet.uav[49] utilizationEnergyMission 111040.34260559
scalar OsgEarthNet.uav[49] utilizationEnergyMaintenance 85086.819351196
scalar OsgEarthNet.uav[49] utilizationEnergyCharge 195644.30078125
scalar OsgEarthNet.uav[49] utilizationEnergyOverdrawMission 0
scalar OsgEarthNet.uav[49] utilizationEnergyOverdrawMaintenance 0
scalar OsgEarthNet.uav[49] utilizationCountMissions 43
scalar OsgEarthNet.uav[49] utilizationCountManeuversMission 388
scalar OsgEarthNet.uav[49] utilizationCountManeuversMaintenance 86
scalar OsgEarthNet.uav[49] utilizationCountChargeState 43
scalar OsgEarthNet.uav[49] utilizationCountOverdrawnAfterMission 0
scalar OsgEarthNet.uav[49] utilizationCountIdleState 42
scalar OsgEarthNet.uav[49] utilizationFail 0
scalar OsgEarthNet.uav[49] simulationTime 259200
scalar OsgEarthNet.uav[50] utilizationSecMission 27095.580236181
scalar OsgEarthNet.uav[50] utilizationSecMaintenance 20876.554098191
scalar OsgEarthNet.uav[50] utilizationSecCharge 177633.8463959
scalar OsgEarthNet.uav[50] utilizationSecIdle 33594.018269728
scalar OsgEarthNet.uav[50] utilizationEnergyMission 125491.21263123
scalar OsgEarthNet.uav[50] utilizationEnergyMaintenance 97782.497932434
scalar OsgEarthNet.uav[50] utilizationEnergyCharge 223252.28295898
scalar OsgEarthNet.uav[50] utilizationEnergyOverdrawMission 0
scalar OsgEarthNet.uav[50] utilizationEnergyOverdrawMaintenance 0
scalar OsgEarthNet.uav[50] utilizationCountMissions 49
scalar OsgEarthNet.uav[50] utilizationCountManeuversMission 429
scalar OsgEarthNet.uav[50] utilizationCountManeuversMaintenance 98
scalar OsgEarthNet.uav[50] utilizationCountChargeState 49
scalar OsgEarthNet.uav[50] utilizationCountOverdrawnAfterMission 0
scalar OsgEarthNet.uav[50] utilizationCountIdleState 45
scalar OsgEarthNet.uav[50] utilizationFail 0
scalar OsgEarthNet.uav[50] simulationTime 259200
scalar OsgEarthNet.uav[51] utilizationSecMission 25682.142717279
scalar OsgEarthNet.uav[51] utilizationSecMaintenance 20443.048908722
scalar OsgEarthNet.uav[51] utilizationSecCharge 169240
scalar OsgEarthNet.uav[51] utilizationSecIdle 43834.807373999
scalar OsgEarthNet.uav[51] utilizationEnergyMission 119524.22222439
scalar OsgEarthNet.uav[51] utilizationEnergyMaintenance 94140.309020996
scalar OsgEarthNet.uav[51] utilizationEnergyCharge 211820.53515625
scalar OsgEarthNet.uav[51] utilizationEnergyOverdrawMission 0
scalar OsgEarthNet.uav[51] utilizationEnergyOverdrawMaintenance 0
scalar OsgEarthNet.uav[51] utilizationCountMissions 47
scalar OsgEarthNet.uav[51] utilizationCountManeuversMission 420
scalar OsgEarthNet.uav[51] utilizationCountManeuversMaintenance 95
scalar OsgEarthNet.uav[51] utilizationCountChargeState 47
scalar OsgEarthNet.uav[51] utilizationCountOverdrawnAfterMission 0
scalar OsgEarthNet.uav[51] utilizationCountIdleState 44
scalar OsgEarthNet.uav[51] utilizationFail 0
scalar OsgEarthNet.uav[51] simulationTime 259200
scalar OsgEarthNet.uav[52] utilizationSecMission 28760.930279705
scalar OsgEarthNet.uav[52] utilizationSecMaintenance 19391.604982418
scalar OsgEarthNet.uav[52] utilizationSecCharge 174260
scalar OsgEarthNet.uav[52] utilizationSecIdle 36787.463737877
scalar OsgEarthNet.uav[52] utilizationEnergyMission 132951.73437363
scalar OsgEarthNet.uav[52] utilizationEnergyMaintenance 89950.417053223
scalar OsgEarthNet.uav[52] utilizationEnergyCharge 220344.28857422
scalar OsgEarthNet.uav[52] utilizationEnergyOverdrawMission 0
scalar OsgEarthNet.uav[52] utilizationEnergyOverdrawMaintenance 0
scalar OsgEarthNet.uav[52] utilizationCountMissions 48
scalar OsgEarthNet.uav[52] utilizationCountManeuversMission 473
scalar OsgEarthNet.uav[52] utilizationCountManeuversMaintenance 97
scalar OsgEarthNet.uav[52] utilizationCountChargeState 48
scalar OsgEarthNet.uav[52] utilizationCountOverdrawnAfterMission 0
scalar OsgEarthNet.uav[52] utilizationCountIdleState 43
scalar OsgEarthNet.uav[52] utilizationFail 0
scalar OsgEarthNet.uav[52] simulationTime 259200
scalar OsgEarthNet.uav[53] utilizationSecMission 29336.274132794
scalar OsgEarthNet.uav[53] utilizationSecMaintenance 20318.558541176
scalar OsgEarthNet.uav[53] utilizationSecCharge 178890
scalar OsgEarthNet.uav[53] utilizationSecIdle 30655.16632603
scalar OsgEarthNet.uav[53] utilizationEnergyMission 135493.10610658
scalar OsgEarthNet.uav[53] utilizationEnergyMaintenance 94288.272800446
scalar OsgEarthNet.uav[53] utilizationEnergyCharge 225502.80224609
scalar OsgEarthNet.uav[53] utilizationEnergyOverdrawMission 0
scalar OsgEarthNet.uav[53] utilizationEnergyOverdrawMaintenance 0
scalar OsgEarthNet.uav[53] utilizationCountMissions 50
scalar OsgEarthNet.uav[53] utilizationCountManeuversMission 475
scalar OsgEarthNet.uav[53] utilizationCountManeuversMaintenance 101
scalar OsgEarthNet.uav[53] utilizationCountChargeState 50
scalar OsgEarthNet.uav[53] utilizationCountOverdrawnAfterMission 0
scalar OsgEarthNet.uav[53] utilizationCountIdleState 40
scalar OsgEarthNet.uav[53] utilizationFail 0
scalar OsgEarthNet.uav[53] simulationTime 259200
scalar OsgEarthNet.uav[54] utilizationSecMission 28319.879668797
scalar OsgEarthNet.uav[54] utilizationSecMaintenance 23014.788907124
scalar OsgEarthNet.uav[54] utilizationSecCharge 186063.33042408
scalar OsgEarthNet.uav[54] utilizationSecIdle 21802
scalar OsgEarthNet.uav[54] utilizationEnergyMission 129664.92937469
scalar OsgEarthNet.uav[54] utilizationEnergyMaintenance 107454.98122787
scalar OsgEarthNet.uav[54] utilizationEnergyCharge 234880.71728516
scalar OsgEarthNet.uav[54] utilizationEnergyOverdrawMission 0
scalar OsgEarthNet.uav[54] utilizationEnergyOverdrawMaintenance 0
scalar OsgEarthNet.uav[54] utilizationCountMissions 52
scalar OsgEarthNet.uav[54] utilizationCountManeuversMission 465
scalar OsgEarthNet.uav[54] utilizationCountManeuversMaintenance 103
scalar OsgEarthNet.uav[54] utilizationCountChargeState 52
scalar OsgEarthNet.uav[54] utilizationCountOverdrawnAfterMission 0
scalar OsgEarthNet.uav[54] utilizationCountIdleState 46
scalar OsgEarthNet.uav[54] utilizationFail 0
scalar OsgEarthNet.uav[54] simulationTime 259200
scalar OsgEarthNet.uav[55] utilizationSecMission 29232.436445642
scalar OsgEarthNet.uav[55] utilizationSecMaintenance 22238.118975826
scalar OsgEarthNet.uav[55] utilizationSecCharge 184739.81249787
scalar OsgEarthNet.uav[55] utilizationSecIdle 22989.631080665
scalar OsgEarthNet.uav[55] utilizationEnergyMission 135630.75904465
scalar OsgEarthNet.uav[55] utilizationEnergyMaintenance 103044.64190674
scalar OsgEarthNet.uav[55] utilizationEnergyCharge 234423.23797607
scalar OsgEarthNet.uav[55] utilizationEnergyOverdrawMission 0
scalar OsgEarthNet.uav[55] utilizationEnergyOverdrawMaintenance 0
scalar OsgEarthNet.uav[55] utilizationCountMissions 52
scalar OsgEarthNet.uav[55] utilizationCountManeuversMission 484
scalar OsgEarthNet.uav[55] utilizationCountManeuversMaintenance 104
scalar OsgEarthNet.uav[55] utilizationCountChargeState 52
scalar OsgEarthNet.uav[55] utilizationCountOverdrawnAfterMission 0
scalar OsgEarthNet.uav[55] utilizationCountIdleState 39
scalar OsgEarthNet.uav[55] utilizationFail 0
scalar OsgEarthNet.uav[55] simulationTime 259200
scalar OsgEarthNet.uav[56] utilizationSecMission 30052.680154653
scalar OsgEarthNet.uav[56] utilizationSecMaintenance 22478.255842116
scalar OsgEarthNet.uav[56] utilizationSecCharge 189437.06300323
scalar OsgEarthNet.uav[56] utilizationSecIdle 17232
scalar OsgEarthNet.uav[56] utilizationEnergyMission 139095.89263535
scalar OsgEarthNet.uav[56] utilizationEnergyMaintenance 104046.97549057
scalar OsgEarthNet.uav[56] utilizationEnergyCharge 239480.01525879
scalar OsgEarthNet.uav[56] utilizationEnergyOverdrawMission 0
scalar OsgEarthNet.uav[56] utilizationEnergyOverdrawMaintenance 0
scalar OsgEarthNet.uav[56] utilizationCountMissions 53
scalar OsgEarthNet.uav[56] utilizationCountManeuversMission 483
scalar OsgEarthNet.uav[56] utilizationCountManeuversMaintenance 105
scalar OsgEarthNet.uav[56] utilizationCountChargeState 53
scalar OsgEarthNet.uav[56] utilizationCountOverdrawnAfterMission 0
scalar OsgEarthNet.uav[56] utilizationCountIdleState 42
scalar OsgEarthNet.uav[56] utilizationFail 0
scalar OsgEarthNet.uav[56] simulationTime 259200
scalar OsgEarthNet.uav[57] utilizationSecMission 30046.678698762
scalar OsgEarthNet.uav[57] utilizationSecMaintenance 22034.223650517
scalar OsgEarthNet.uav[57] utilizationSecCharge 187901.68970688
scalar OsgEarthNet.uav[57] utilizationSecIdle 19217.406943841
scalar OsgEarthNet.uav[57] utilizationEnergyMission 138031.30324554
scalar OsgEarthNet.uav[57] utilizationEnergyMaintenance 103149.56847382
scalar OsgEarthNet.uav[57] utilizationEnergyCharge 238141.4753418
scalar OsgEarthNet.uav[57] utilizationEnergyOverdrawMission 0
scalar OsgEarthNet.uav[57] utilizationEnergyOverdrawMaintenance 0
scalar OsgEarthNet.uav[57] utilizationCountMissions 53
scalar OsgEarthNet.uav[57] utilizationCountManeuversMission 491
scalar OsgEarthNet.uav[57] utilizationCountManeuversMaintenance 106
scalar OsgEarthNet.uav[57] utilizationCountChargeState 53
scalar OsgEarthNet.uav[57] utilizationCountOverdrawnAfterMission 0
scalar OsgEarthNet.uav[57] utilizationCountIdleState 37
scalar OsgEarthNet.uav[57] utilizationFail 0
scalar OsgEarthNet.uav[57] simulationTime 259200
scalar OsgEarthNet.uav[58] utilizationSecMission 30177.69247493
scalar OsgEarthNet.uav[58] utilizationSecMaintenance 21850.853566353
scalar OsgEarthNet.uav[58] utilizationSecCharge 188710
scalar OsgEarthNet.uav[58] utilizationSecIdle 18461.452958717
scalar OsgEarthNet.uav[58] utilizationEnergyMission 139394.21775669
scalar OsgEarthNet.uav[58] utilizationEnergyMaintenance 101642.02285385
scalar OsgEarthNet.uav[58] utilizationEnergyCharge 239067.63085938
scalar OsgEarthNet.uav[58] utilizationEnergyOverdrawMission 0
scalar OsgEarthNet.uav[58] utilizationEnergyOverdrawMaintenance 72.67790222168
scalar OsgEarthNet.uav[58] utilizationCountMissions 52
scalar OsgEarthNet.uav[58] utilizationCountManeuversMission 498
scalar OsgEarthNet.uav[58] utilizationCountManeuversMaintenance 105
scalar OsgEarthNet.uav[58] utilizationCountChargeState 52
scalar OsgEarthNet.uav[58] utilizationCountOverdrawnAfterMission 1
scalar OsgEarthNet.uav[58] utilizationCountIdleState 41
scalar OsgEarthNet.uav[58] utilizationFail 0
scalar OsgEarthNet.uav[58] simulationTime 259200
scalar OsgEarthNet.uav[59] utilizationSecMission 31868.585355613
scalar OsgEarthNet.uav[59] utilizationSecMaintenance 20385.506629373
scalar OsgEarthNet.uav[59] utilizationSecCharge 186805.33501865
scalar OsgEarthNet.uav[59] utilizationSecIdle 20140.571996361
scalar OsgEarthNet.uav[59] utilizationEnergyMission 146011.95292282
scalar OsgEarthNet.uav[59] utilizationEnergyMaintenance 95168.218959808
scalar OsgEarthNet.uav[59] utilizationEnergyCharge 240102.81982422
scalar OsgEarthNet.uav[59] utilizationEnergyOverdrawMission 0
scalar OsgEarthNet.uav[59] utilizationEnergyOverdrawMaintenance 0
scalar OsgEarthNet.uav[59] utilizationCountMissions 52
scalar OsgEarthNet.uav[59] utilizationCountManeuversMission 520
scalar OsgEarthNet.uav[59] utilizationCountManeuversMaintenance 104
scalar OsgEarthNet.uav[59] utilizationCountChargeState 52
scalar OsgEarthNet.uav[59] utilizationCountOverdrawnAfterMission 0
scalar OsgEarthNet.uav[59] utilizationCountIdleState 29
scalar OsgEarthNet.uav[59] utilizationFail 0
scalar OsgEarthNet.uav[59] simulationTime 259200
scalar OsgEarthNet.cs[0] usedPower 2186284.4780629
scalar OsgEarthNet.cs[0] chargedPower 2186284.4780629
scalar OsgEarthNet.cs[0] chargedMobileNodes 438
scalar OsgEarthNet.cs[0] reservations 486
scalar OsgEarthNet.cs[1] usedPower 2920035.1987114
scalar OsgEarthNet.cs[1] chargedPower 2920035.1987114
scalar OsgEarthNet.cs[1] chargedMobileNodes 584
scalar OsgEarthNet.cs[1] reservations 635
scalar OsgEarthNet.cs[2] usedPower 4810696.7764292
scalar OsgEarthNet.cs[2] chargedPower 4810696.7764292
scalar OsgEarthNet.cs[2] chargedMobileNodes 1010
scalar OsgEarthNet.cs[2] reservations 1064

