version 2
run Szenario_Hotel_Gabelbach-91-20180710-04:08:38-47744
attr configname Szenario_Hotel_Gabelbach
attr datetime 20180710-04:08:38
attr experiment Szenario_Hotel_Gabelbach
attr inifile omnetpp.ini
attr iterationvars "$numUAVs=70, $replM=0"
attr iterationvarsf numUAVs=70,replM=0-
attr measurement "$numUAVs=70, $replM=0"
attr network OsgEarthNet
attr processid 47744
attr repetition 11
attr replication #11
attr resultdir results
attr runnumber 91
attr seedset 91
itervar numUAVs 70
itervar replM 0
param *.osgEarthScene.scene "\"Szenario_Hotel_Gabelbach.earth\""
param *.playgroundLatitude 50.6830269
param *.playgroundLongitude 10.8538055
param *.playgroundWidth 3500m
param *.playgroundHeight 3500m
param *.numCSs 3
param *.cs[0].posX 3537m
param *.cs[0].posY 965m
param *.cs[0].posZ 538m
param *.cs[1].posX 312m
param *.cs[1].posY 1262m
param *.cs[1].posZ 539m
param *.cs[2].posX 2185m
param *.cs[2].posY 3026m
param *.cs[2].posZ 777m
param *.cs[3].posX 10m
param *.cs[3].posY 2200m
param *.cs[3].posZ 560m
param *.cs[4].posX 750m
param *.cs[4].posY 200m
param *.cs[4].posZ 540m
param *.cs[5].posX 2450m
param *.cs[5].posY 180m
param *.cs[5].posZ 524m
param *.cs[6].posX 3140m
param *.cs[6].posY 1790m
param *.cs[6].posZ 606m
param *.numUAVs 70
param *.uav[*].replacementMethod 0
param *.*.timeStep 10s
param *.uav[*].commandPreviewCommandCount 20
param *.missionControl.missionFiles "\"missions\\\\Szenario_WB_Hotel_Gabelbach_Mission_Hotel.waypoints,missions\\\\Szenario_WB_Hotel_Gabelbach_Mission_Kickelhahn.waypoints,missions\\\\Szenario_WB_Hotel_Gabelbach_Mission_Ilmenau_Sportplatz.waypoints,missions\\\\Szenario_WB_Hotel_Gabelbach_Mission_Manebach_Mitte.waypoints,missions\\\\Szenario_WB_Hotel_Gabelbach_Mission_Manebach_Sued.waypoints\""
param *.missionControl.missionFiles "\"missions\\\\Szenario_WB_Hotel_Gabelbach_Mission_Hotel.waypoints,missions\\\\Szenario_WB_Hotel_Gabelbach_Mission_Kickelhahn.waypoints,missions\\\\Szenario_WB_Hotel_Gabelbach_Mission_Ilmenau_Sportplatz.waypoints,missions\\\\Szenario_WB_Hotel_Gabelbach_Mission_Manebach_Mitte.waypoints,missions\\\\Szenario_WB_Hotel_Gabelbach_Mission_Manebach_Sued.waypoints,missions\\\\Szenario_WB_Hotel_Gabelbach_Hover_HoheSchlaufe.waypoints,missions\\\\Szenario_WB_Hotel_Gabelbach_Hover_Kickelhahn.waypoints,missions\\\\Szenario_WB_Hotel_Gabelbach_Hover_Gabelbachskopf.waypoints,missions\\\\Szenario_WB_Hotel_Gabelbach_Hover_Dachskopf.waypoints\""
param *.uav[0].startX 3537m
param *.uav[0].startY 965m
param *.uav[0].startZ 539m
param *.uav[1].startX 312m
param *.uav[1].startY 1262m
param *.uav[1].startZ 540m
param *.uav[2].startX 2185m
param *.uav[2].startY 3026m
param *.uav[2].startZ 778m
param *.uav[3].startX 3537m
param *.uav[3].startY 965m
param *.uav[3].startZ 539m
param *.uav[4].startX 312m
param *.uav[4].startY 1262m
param *.uav[4].startZ 540m
param *.uav[5].startX 2185m
param *.uav[5].startY 3026m
param *.uav[5].startZ 778m
param *.uav[6].startX 3537m
param *.uav[6].startY 965m
param *.uav[6].startZ 539m
param *.uav[7].startX 312m
param *.uav[7].startY 1262m
param *.uav[7].startZ 540m
param *.uav[8].startX 2185m
param *.uav[8].startY 3026m
param *.uav[8].startZ 778m
param *.uav[9].startX 3537m
param *.uav[9].startY 965m
param *.uav[9].startZ 539m
param *.uav[10].startX 3537m
param *.uav[10].startY 965m
param *.uav[10].startZ 539m
param *.uav[11].startX 312m
param *.uav[11].startY 1262m
param *.uav[11].startZ 540m
param *.uav[12].startX 2185m
param *.uav[12].startY 3026m
param *.uav[12].startZ 778m
param *.uav[13].startX 3537m
param *.uav[13].startY 965m
param *.uav[13].startZ 539m
param *.uav[14].startX 312m
param *.uav[14].startY 1262m
param *.uav[14].startZ 540m
param *.uav[15].startX 2185m
param *.uav[15].startY 3026m
param *.uav[15].startZ 778m
param *.uav[16].startX 3537m
param *.uav[16].startY 965m
param *.uav[16].startZ 539m
param *.uav[17].startX 312m
param *.uav[17].startY 1262m
param *.uav[17].startZ 540m
param *.uav[18].startX 2185m
param *.uav[18].startY 3026m
param *.uav[18].startZ 778m
param *.uav[19].startX 3537m
param *.uav[19].startY 965m
param *.uav[19].startZ 539m
param *.uav[20].startX 3537m
param *.uav[20].startY 965m
param *.uav[20].startZ 539m
param *.uav[21].startX 312m
param *.uav[21].startY 1262m
param *.uav[21].startZ 540m
param *.uav[22].startX 2185m
param *.uav[22].startY 3026m
param *.uav[22].startZ 778m
param *.uav[23].startX 3537m
param *.uav[23].startY 965m
param *.uav[23].startZ 539m
param *.uav[24].startX 312m
param *.uav[24].startY 1262m
param *.uav[24].startZ 540m
param *.uav[25].startX 2185m
param *.uav[25].startY 3026m
param *.uav[25].startZ 778m
param *.uav[26].startX 3537m
param *.uav[26].startY 965m
param *.uav[26].startZ 539m
param *.uav[27].startX 312m
param *.uav[27].startY 1262m
param *.uav[27].startZ 540m
param *.uav[28].startX 2185m
param *.uav[28].startY 3026m
param *.uav[28].startZ 778m
param *.uav[29].startX 3537m
param *.uav[29].startY 965m
param *.uav[29].startZ 539m
param *.uav[30].startX 3537m
param *.uav[30].startY 965m
param *.uav[30].startZ 539m
param *.uav[31].startX 312m
param *.uav[31].startY 1262m
param *.uav[31].startZ 540m
param *.uav[32].startX 2185m
param *.uav[32].startY 3026m
param *.uav[32].startZ 778m
param *.uav[33].startX 3537m
param *.uav[33].startY 965m
param *.uav[33].startZ 539m
param *.uav[34].startX 312m
param *.uav[34].startY 1262m
param *.uav[34].startZ 540m
param *.uav[35].startX 2185m
param *.uav[35].startY 3026m
param *.uav[35].startZ 778m
param *.uav[36].startX 3537m
param *.uav[36].startY 965m
param *.uav[36].startZ 539m
param *.uav[37].startX 312m
param *.uav[37].startY 1262m
param *.uav[37].startZ 540m
param *.uav[38].startX 2185m
param *.uav[38].startY 3026m
param *.uav[38].startZ 778m
param *.uav[39].startX 3537m
param *.uav[39].startY 965m
param *.uav[39].startZ 539m
param *.uav[40].startX 3537m
param *.uav[40].startY 965m
param *.uav[40].startZ 539m
param *.uav[41].startX 312m
param *.uav[41].startY 1262m
param *.uav[41].startZ 540m
param *.uav[42].startX 2185m
param *.uav[42].startY 3026m
param *.uav[42].startZ 778m
param *.uav[43].startX 3537m
param *.uav[43].startY 965m
param *.uav[43].startZ 539m
param *.uav[44].startX 312m
param *.uav[44].startY 1262m
param *.uav[44].startZ 540m
param *.uav[45].startX 2185m
param *.uav[45].startY 3026m
param *.uav[45].startZ 778m
param *.uav[46].startX 3537m
param *.uav[46].startY 965m
param *.uav[46].startZ 539m
param *.uav[47].startX 312m
param *.uav[47].startY 1262m
param *.uav[47].startZ 540m
param *.uav[48].startX 2185m
param *.uav[48].startY 3026m
param *.uav[48].startZ 778m
param *.uav[49].startX 3537m
param *.uav[49].startY 965m
param *.uav[49].startZ 539m
param *.uav[50].startX 3537m
param *.uav[50].startY 965m
param *.uav[50].startZ 539m
param *.uav[51].startX 312m
param *.uav[51].startY 1262m
param *.uav[51].startZ 540m
param *.uav[52].startX 2185m
param *.uav[52].startY 3026m
param *.uav[52].startZ 778m
param *.uav[53].startX 3537m
param *.uav[53].startY 965m
param *.uav[53].startZ 539m
param *.uav[54].startX 312m
param *.uav[54].startY 1262m
param *.uav[54].startZ 540m
param *.uav[55].startX 2185m
param *.uav[55].startY 3026m
param *.uav[55].startZ 778m
param *.uav[56].startX 3537m
param *.uav[56].startY 965m
param *.uav[56].startZ 539m
param *.uav[57].startX 312m
param *.uav[57].startY 1262m
param *.uav[57].startZ 540m
param *.uav[58].startX 2185m
param *.uav[58].startY 3026m
param *.uav[58].startZ 778m
param *.uav[59].startX 3537m
param *.uav[59].startY 965m
param *.uav[59].startZ 539m
param *.uav[60].startX 3537m
param *.uav[60].startY 965m
param *.uav[60].startZ 539m
param *.uav[61].startX 312m
param *.uav[61].startY 1262m
param *.uav[61].startZ 540m
param *.uav[62].startX 2185m
param *.uav[62].startY 3026m
param *.uav[62].startZ 778m
param *.uav[63].startX 3537m
param *.uav[63].startY 965m
param *.uav[63].startZ 539m
param *.uav[64].startX 312m
param *.uav[64].startY 1262m
param *.uav[64].startZ 540m
param *.uav[65].startX 2185m
param *.uav[65].startY 3026m
param *.uav[65].startZ 778m
param *.uav[66].startX 3537m
param *.uav[66].startY 965m
param *.uav[66].startZ 539m
param *.uav[67].startX 312m
param *.uav[67].startY 1262m
param *.uav[67].startZ 540m
param *.uav[68].startX 2185m
param *.uav[68].startY 3026m
param *.uav[68].startZ 778m
param *.uav[69].startX 3537m
param *.uav[69].startY 965m
param *.uav[69].startZ 539m
param *.uav[70].startX 3537m
param *.uav[70].startY 965m
param *.uav[70].startZ 539m
param *.uav[71].startX 312m
param *.uav[71].startY 1262m
param *.uav[71].startZ 540m
param *.uav[72].startX 2185m
param *.uav[72].startY 3026m
param *.uav[72].startZ 778m
param *.uav[73].startX 3537m
param *.uav[73].startY 965m
param *.uav[73].startZ 539m
param *.uav[74].startX 312m
param *.uav[74].startY 1262m
param *.uav[74].startZ 540m
param *.uav[75].startX 2185m
param *.uav[75].startY 3026m
param *.uav[75].startZ 778m
param *.uav[76].startX 3537m
param *.uav[76].startY 965m
param *.uav[76].startZ 539m
param *.uav[77].startX 312m
param *.uav[77].startY 1262m
param *.uav[77].startZ 540m
param *.uav[78].startX 2185m
param *.uav[78].startY 3026m
param *.uav[78].startZ 778m
param *.uav[79].startX 3537m
param *.uav[79].startY 965m
param *.uav[79].startZ 539m
param *.uav[80].startX 3537m
param *.uav[80].startY 965m
param *.uav[80].startZ 539m
param *.uav[81].startX 312m
param *.uav[81].startY 1262m
param *.uav[81].startZ 540m
param *.uav[82].startX 2185m
param *.uav[82].startY 3026m
param *.uav[82].startZ 778m
param *.uav[83].startX 3537m
param *.uav[83].startY 965m
param *.uav[83].startZ 539m
param *.uav[84].startX 312m
param *.uav[84].startY 1262m
param *.uav[84].startZ 540m
param *.uav[85].startX 2185m
param *.uav[85].startY 3026m
param *.uav[85].startZ 778m
param *.uav[86].startX 3537m
param *.uav[86].startY 965m
param *.uav[86].startZ 539m
param *.uav[87].startX 312m
param *.uav[87].startY 1262m
param *.uav[87].startZ 540m
param *.uav[88].startX 2185m
param *.uav[88].startY 3026m
param *.uav[88].startZ 778m
param *.uav[89].startX 3537m
param *.uav[89].startY 965m
param *.uav[89].startZ 539m
param *.uav[90].startX 3537m
param *.uav[90].startY 965m
param *.uav[90].startZ 539m
param *.uav[91].startX 312m
param *.uav[91].startY 1262m
param *.uav[91].startZ 540m
param *.uav[92].startX 2185m
param *.uav[92].startY 3026m
param *.uav[92].startZ 778m
param *.uav[93].startX 3537m
param *.uav[93].startY 965m
param *.uav[93].startZ 539m
param *.uav[94].startX 312m
param *.uav[94].startY 1262m
param *.uav[94].startZ 540m
param *.uav[95].startX 2185m
param *.uav[95].startY 3026m
param *.uav[95].startZ 778m
param *.uav[96].startX 3537m
param *.uav[96].startY 965m
param *.uav[96].startZ 539m
param *.uav[97].startX 312m
param *.uav[97].startY 1262m
param *.uav[97].startZ 540m
param *.uav[98].startX 2185m
param *.uav[98].startY 3026m
param *.uav[98].startZ 778m
param *.uav[99].startX 3537m
param *.uav[99].startY 965m
param *.uav[99].startZ 539m
param *.osgEarthScene.scene "\"boston.earth\""
param *.playgroundLatitude 42.3558
param *.playgroundLongitude -71.0677
param *.playgroundWidth 400m
param *.playgroundHeight 200m
param *.channelController.connectionColor "\"#0000FF40\""
param *.channelController.showConnections false
param *.uav[*].modelURL "\"quadrocopter.small.obj.15.scale.0,0,90.rot\""
param *.uav[*].labelColor "\"#FF7C00CC\""
param *.uav[*].label2Color "\"#FF7C00EE\""
param *.uav[*].batteryCapacity 5200mAh
param *.uav[*].batteryRemaining uav[index].batteryCapacity
param *.uav[*].predictionQuantile 0.95
param *.uav[*].replacementMethod 2
param *.uav[*].weightedSumWeight 0.5
param *.cs[*].modelURL "\"chargingstation_v1.osgt.2.scale.0,0,0.rot.0,0,-15e-1.trans\""
param *.cs[*].spotsWaiting 999
param *.cs[*].spotsCharging 999
param *.cs[*].chargeEffectivenessPercentage 100
param *.cs[*].nonLinearPhaseStartPercentage 85
param *.cs[*].chargeCurrent 6.0A
param *.cs[*].prioritizeFastCharge true
param *.missionControl.replacementSearchMethod 0
param *.*.timeStep 9s

scalar OsgEarthNet.uav[0] utilizationSecMission 553.12566654921
scalar OsgEarthNet.uav[0] utilizationSecMaintenance 450.43069856406
scalar OsgEarthNet.uav[0] utilizationSecCharge 3720
scalar OsgEarthNet.uav[0] utilizationSecIdle 254476.44263489
scalar OsgEarthNet.uav[0] utilizationEnergyMission 2485.283782959
scalar OsgEarthNet.uav[0] utilizationEnergyMaintenance 2079.3750419617
scalar OsgEarthNet.uav[0] utilizationEnergyCharge 4663.306640625
scalar OsgEarthNet.uav[0] utilizationEnergyOverdrawMission 0
scalar OsgEarthNet.uav[0] utilizationEnergyOverdrawMaintenance 0
scalar OsgEarthNet.uav[0] utilizationCountMissions 1
scalar OsgEarthNet.uav[0] utilizationCountManeuversMission 9
scalar OsgEarthNet.uav[0] utilizationCountManeuversMaintenance 2
scalar OsgEarthNet.uav[0] utilizationCountChargeState 1
scalar OsgEarthNet.uav[0] utilizationCountOverdrawnAfterMission 0
scalar OsgEarthNet.uav[0] utilizationCountIdleState 2
scalar OsgEarthNet.uav[0] utilizationFail 0
scalar OsgEarthNet.uav[0] simulationTime 259200
scalar OsgEarthNet.uav[1] utilizationSecMission 28418.642979801
scalar OsgEarthNet.uav[1] utilizationSecMaintenance 20078.077811476
scalar OsgEarthNet.uav[1] utilizationSecCharge 178581.27820872
scalar OsgEarthNet.uav[1] utilizationSecIdle 32122
scalar OsgEarthNet.uav[1] utilizationEnergyMission 132292.66709137
scalar OsgEarthNet.uav[1] utilizationEnergyMaintenance 94668.411113739
scalar OsgEarthNet.uav[1] utilizationEnergyCharge 225999.10375977
scalar OsgEarthNet.uav[1] utilizationEnergyOverdrawMission 0
scalar OsgEarthNet.uav[1] utilizationEnergyOverdrawMaintenance 0
scalar OsgEarthNet.uav[1] utilizationCountMissions 49
scalar OsgEarthNet.uav[1] utilizationCountManeuversMission 476
scalar OsgEarthNet.uav[1] utilizationCountManeuversMaintenance 97
scalar OsgEarthNet.uav[1] utilizationCountChargeState 49
scalar OsgEarthNet.uav[1] utilizationCountOverdrawnAfterMission 0
scalar OsgEarthNet.uav[1] utilizationCountIdleState 49
scalar OsgEarthNet.uav[1] utilizationFail 0
scalar OsgEarthNet.uav[1] simulationTime 259200
scalar OsgEarthNet.uav[2] utilizationSecMission 27436.901995916
scalar OsgEarthNet.uav[2] utilizationSecMaintenance 18069.004003518
scalar OsgEarthNet.uav[2] utilizationSecCharge 167044.66765328
scalar OsgEarthNet.uav[2] utilizationSecIdle 46649.42534729
scalar OsgEarthNet.uav[2] utilizationEnergyMission 127030.25038147
scalar OsgEarthNet.uav[2] utilizationEnergyMaintenance 84424.533267975
scalar OsgEarthNet.uav[2] utilizationEnergyCharge 210647.02905273
scalar OsgEarthNet.uav[2] utilizationEnergyOverdrawMission 0
scalar OsgEarthNet.uav[2] utilizationEnergyOverdrawMaintenance 0
scalar OsgEarthNet.uav[2] utilizationCountMissions 46
scalar OsgEarthNet.uav[2] utilizationCountManeuversMission 440
scalar OsgEarthNet.uav[2] utilizationCountManeuversMaintenance 92
scalar OsgEarthNet.uav[2] utilizationCountChargeState 46
scalar OsgEarthNet.uav[2] utilizationCountOverdrawnAfterMission 0
scalar OsgEarthNet.uav[2] utilizationCountIdleState 46
scalar OsgEarthNet.uav[2] utilizationFail 0
scalar OsgEarthNet.uav[2] simulationTime 259200
scalar OsgEarthNet.uav[3] utilizationSecMission 28759.001912223
scalar OsgEarthNet.uav[3] utilizationSecMaintenance 17707.604970243
scalar OsgEarthNet.uav[3] utilizationSecCharge 170620
scalar OsgEarthNet.uav[3] utilizationSecIdle 42113.392117534
scalar OsgEarthNet.uav[3] utilizationEnergyMission 132426.44147873
scalar OsgEarthNet.uav[3] utilizationEnergyMaintenance 81817.333102144
scalar OsgEarthNet.uav[3] utilizationEnergyCharge 213995.2734375
scalar OsgEarthNet.uav[3] utilizationEnergyOverdrawMission 0
scalar OsgEarthNet.uav[3] utilizationEnergyOverdrawMaintenance 0
scalar OsgEarthNet.uav[3] utilizationCountMissions 47
scalar OsgEarthNet.uav[3] utilizationCountManeuversMission 465
scalar OsgEarthNet.uav[3] utilizationCountManeuversMaintenance 95
scalar OsgEarthNet.uav[3] utilizationCountChargeState 47
scalar OsgEarthNet.uav[3] utilizationCountOverdrawnAfterMission 0
scalar OsgEarthNet.uav[3] utilizationCountIdleState 48
scalar OsgEarthNet.uav[3] utilizationFail 0
scalar OsgEarthNet.uav[3] simulationTime 259200
scalar OsgEarthNet.uav[4] utilizationSecMission 28849.140354427
scalar OsgEarthNet.uav[4] utilizationSecMaintenance 18044.409323458
scalar OsgEarthNet.uav[4] utilizationSecCharge 169889.13425728
scalar OsgEarthNet.uav[4] utilizationSecIdle 42417.315064839
scalar OsgEarthNet.uav[4] utilizationEnergyMission 132936.86394501
scalar OsgEarthNet.uav[4] utilizationEnergyMaintenance 83610.245037079
scalar OsgEarthNet.uav[4] utilizationEnergyCharge 212852.97497559
scalar OsgEarthNet.uav[4] utilizationEnergyOverdrawMission 0
scalar OsgEarthNet.uav[4] utilizationEnergyOverdrawMaintenance 0
scalar OsgEarthNet.uav[4] utilizationCountMissions 48
scalar OsgEarthNet.uav[4] utilizationCountManeuversMission 470
scalar OsgEarthNet.uav[4] utilizationCountManeuversMaintenance 96
scalar OsgEarthNet.uav[4] utilizationCountChargeState 48
scalar OsgEarthNet.uav[4] utilizationCountOverdrawnAfterMission 0
scalar OsgEarthNet.uav[4] utilizationCountIdleState 48
scalar OsgEarthNet.uav[4] utilizationFail 0
scalar OsgEarthNet.uav[4] simulationTime 259200
scalar OsgEarthNet.uav[5] utilizationSecMission 3746.1800101567
scalar OsgEarthNet.uav[5] utilizationSecMaintenance 1340.6442259679
scalar OsgEarthNet.uav[5] utilizationSecCharge 18690
scalar OsgEarthNet.uav[5] utilizationSecIdle 235423.17476388
scalar OsgEarthNet.uav[5] utilizationEnergyMission 17527.658943176
scalar OsgEarthNet.uav[5] utilizationEnergyMaintenance 6034.8602256775
scalar OsgEarthNet.uav[5] utilizationEnergyCharge 23493.76953125
scalar OsgEarthNet.uav[5] utilizationEnergyOverdrawMission 0
scalar OsgEarthNet.uav[5] utilizationEnergyOverdrawMaintenance 0
scalar OsgEarthNet.uav[5] utilizationCountMissions 5
scalar OsgEarthNet.uav[5] utilizationCountManeuversMission 58
scalar OsgEarthNet.uav[5] utilizationCountManeuversMaintenance 10
scalar OsgEarthNet.uav[5] utilizationCountChargeState 5
scalar OsgEarthNet.uav[5] utilizationCountOverdrawnAfterMission 0
scalar OsgEarthNet.uav[5] utilizationCountIdleState 6
scalar OsgEarthNet.uav[5] utilizationFail 0
scalar OsgEarthNet.uav[5] simulationTime 259200
scalar OsgEarthNet.uav[6] utilizationSecMission 29130.834274738
scalar OsgEarthNet.uav[6] utilizationSecMaintenance 17569.808846407
scalar OsgEarthNet.uav[6] utilizationSecCharge 171120
scalar OsgEarthNet.uav[6] utilizationSecIdle 41379.355878855
scalar OsgEarthNet.uav[6] utilizationEnergyMission 134698.16081238
scalar OsgEarthNet.uav[6] utilizationEnergyMaintenance 80310.10490799
scalar OsgEarthNet.uav[6] utilizationEnergyCharge 214708.23046875
scalar OsgEarthNet.uav[6] utilizationEnergyOverdrawMission 0
scalar OsgEarthNet.uav[6] utilizationEnergyOverdrawMaintenance 0
scalar OsgEarthNet.uav[6] utilizationCountMissions 47
scalar OsgEarthNet.uav[6] utilizationCountManeuversMission 473
scalar OsgEarthNet.uav[6] utilizationCountManeuversMaintenance 94
scalar OsgEarthNet.uav[6] utilizationCountChargeState 47
scalar OsgEarthNet.uav[6] utilizationCountOverdrawnAfterMission 0
scalar OsgEarthNet.uav[6] utilizationCountIdleState 48
scalar OsgEarthNet.uav[6] utilizationFail 0
scalar OsgEarthNet.uav[6] simulationTime 259200
scalar OsgEarthNet.uav[7] utilizationSecMission 528.55000878666
scalar OsgEarthNet.uav[7] utilizationSecMaintenance 413.64453676047
scalar OsgEarthNet.uav[7] utilizationSecCharge 3450
scalar OsgEarthNet.uav[7] utilizationSecIdle 254807.80445445
scalar OsgEarthNet.uav[7] utilizationEnergyMission 2321.6493377686
scalar OsgEarthNet.uav[7] utilizationEnergyMaintenance 1897.9793319702
scalar OsgEarthNet.uav[7] utilizationEnergyCharge 4219.6328125
scalar OsgEarthNet.uav[7] utilizationEnergyOverdrawMission 0
scalar OsgEarthNet.uav[7] utilizationEnergyOverdrawMaintenance 0
scalar OsgEarthNet.uav[7] utilizationCountMissions 1
scalar OsgEarthNet.uav[7] utilizationCountManeuversMission 10
scalar OsgEarthNet.uav[7] utilizationCountManeuversMaintenance 2
scalar OsgEarthNet.uav[7] utilizationCountChargeState 1
scalar OsgEarthNet.uav[7] utilizationCountOverdrawnAfterMission 0
scalar OsgEarthNet.uav[7] utilizationCountIdleState 2
scalar OsgEarthNet.uav[7] utilizationFail 0
scalar OsgEarthNet.uav[7] simulationTime 259200
scalar OsgEarthNet.uav[8] utilizationSecMission 28356.532961986
scalar OsgEarthNet.uav[8] utilizationSecMaintenance 20025.692653003
scalar OsgEarthNet.uav[8] utilizationSecCharge 175410
scalar OsgEarthNet.uav[8] utilizationSecIdle 35407.773385011
scalar OsgEarthNet.uav[8] utilizationEnergyMission 131717.29244506
scalar OsgEarthNet.uav[8] utilizationEnergyMaintenance 92210.688980103
scalar OsgEarthNet.uav[8] utilizationEnergyCharge 220448.02246094
scalar OsgEarthNet.uav[8] utilizationEnergyOverdrawMission 0
scalar OsgEarthNet.uav[8] utilizationEnergyOverdrawMaintenance 0
scalar OsgEarthNet.uav[8] utilizationCountMissions 48
scalar OsgEarthNet.uav[8] utilizationCountManeuversMission 461
scalar OsgEarthNet.uav[8] utilizationCountManeuversMaintenance 97
scalar OsgEarthNet.uav[8] utilizationCountChargeState 48
scalar OsgEarthNet.uav[8] utilizationCountOverdrawnAfterMission 0
scalar OsgEarthNet.uav[8] utilizationCountIdleState 49
scalar OsgEarthNet.uav[8] utilizationFail 0
scalar OsgEarthNet.uav[8] simulationTime 259200
scalar OsgEarthNet.uav[9] utilizationSecMission 558.29059458083
scalar OsgEarthNet.uav[9] utilizationSecMaintenance 416.7137519136
scalar OsgEarthNet.uav[9] utilizationSecCharge 3860
scalar OsgEarthNet.uav[9] utilizationSecIdle 254364.99465351
scalar OsgEarthNet.uav[9] utilizationEnergyMission 2766.1261444092
scalar OsgEarthNet.uav[9] utilizationEnergyMaintenance 2139.1490707397
scalar OsgEarthNet.uav[9] utilizationEnergyCharge 4905.2768554688
scalar OsgEarthNet.uav[9] utilizationEnergyOverdrawMission 0
scalar OsgEarthNet.uav[9] utilizationEnergyOverdrawMaintenance 0
scalar OsgEarthNet.uav[9] utilizationCountMissions 1
scalar OsgEarthNet.uav[9] utilizationCountManeuversMission 8
scalar OsgEarthNet.uav[9] utilizationCountManeuversMaintenance 2
scalar OsgEarthNet.uav[9] utilizationCountChargeState 1
scalar OsgEarthNet.uav[9] utilizationCountOverdrawnAfterMission 0
scalar OsgEarthNet.uav[9] utilizationCountIdleState 2
scalar OsgEarthNet.uav[9] utilizationFail 0
scalar OsgEarthNet.uav[9] simulationTime 259200
scalar OsgEarthNet.uav[10] utilizationSecMission 27084.765029523
scalar OsgEarthNet.uav[10] utilizationSecMaintenance 17358.429809573
scalar OsgEarthNet.uav[10] utilizationSecCharge 160661.53358679
scalar OsgEarthNet.uav[10] utilizationSecIdle 54095.270574118
scalar OsgEarthNet.uav[10] utilizationEnergyMission 124142.79993439
scalar OsgEarthNet.uav[10] utilizationEnergyMaintenance 80273.803138733
scalar OsgEarthNet.uav[10] utilizationEnergyCharge 202130.6940918
scalar OsgEarthNet.uav[10] utilizationEnergyOverdrawMission 0
scalar OsgEarthNet.uav[10] utilizationEnergyOverdrawMaintenance 0
scalar OsgEarthNet.uav[10] utilizationCountMissions 45
scalar OsgEarthNet.uav[10] utilizationCountManeuversMission 435
scalar OsgEarthNet.uav[10] utilizationCountManeuversMaintenance 90
scalar OsgEarthNet.uav[10] utilizationCountChargeState 45
scalar OsgEarthNet.uav[10] utilizationCountOverdrawnAfterMission 0
scalar OsgEarthNet.uav[10] utilizationCountIdleState 45
scalar OsgEarthNet.uav[10] utilizationFail 0
scalar OsgEarthNet.uav[10] simulationTime 259200
scalar OsgEarthNet.uav[11] utilizationSecMission 4909.489235423
scalar OsgEarthNet.uav[11] utilizationSecMaintenance 3125.4983705402
scalar OsgEarthNet.uav[11] utilizationSecCharge 29830
scalar OsgEarthNet.uav[11] utilizationSecIdle 221335.01139404
scalar OsgEarthNet.uav[11] utilizationEnergyMission 23493.81350708
scalar OsgEarthNet.uav[11] utilizationEnergyMaintenance 14234.054534912
scalar OsgEarthNet.uav[11] utilizationEnergyCharge 37735.5
scalar OsgEarthNet.uav[11] utilizationEnergyOverdrawMission 0
scalar OsgEarthNet.uav[11] utilizationEnergyOverdrawMaintenance 0
scalar OsgEarthNet.uav[11] utilizationCountMissions 8
scalar OsgEarthNet.uav[11] utilizationCountManeuversMission 85
scalar OsgEarthNet.uav[11] utilizationCountManeuversMaintenance 16
scalar OsgEarthNet.uav[11] utilizationCountChargeState 8
scalar OsgEarthNet.uav[11] utilizationCountOverdrawnAfterMission 0
scalar OsgEarthNet.uav[11] utilizationCountIdleState 9
scalar OsgEarthNet.uav[11] utilizationFail 0
scalar OsgEarthNet.uav[11] simulationTime 259200
scalar OsgEarthNet.uav[12] utilizationSecMission 26709.636191308
scalar OsgEarthNet.uav[12] utilizationSecMaintenance 22398.362808692
scalar OsgEarthNet.uav[12] utilizationSecCharge 178560
scalar OsgEarthNet.uav[12] utilizationSecIdle 31532
scalar OsgEarthNet.uav[12] utilizationEnergyMission 124673.79402952
scalar OsgEarthNet.uav[12] utilizationEnergyMaintenance 104154.18009153
scalar OsgEarthNet.uav[12] utilizationEnergyCharge 224121.00537109
scalar OsgEarthNet.uav[12] utilizationEnergyOverdrawMission 0
scalar OsgEarthNet.uav[12] utilizationEnergyOverdrawMaintenance 0
scalar OsgEarthNet.uav[12] utilizationCountMissions 50
scalar OsgEarthNet.uav[12] utilizationCountManeuversMission 437
scalar OsgEarthNet.uav[12] utilizationCountManeuversMaintenance 99
scalar OsgEarthNet.uav[12] utilizationCountChargeState 49
scalar OsgEarthNet.uav[12] utilizationCountOverdrawnAfterMission 0
scalar OsgEarthNet.uav[12] utilizationCountIdleState 50
scalar OsgEarthNet.uav[12] utilizationFail 0
scalar OsgEarthNet.uav[12] simulationTime 259200
scalar OsgEarthNet.uav[13] utilizationSecMission 7482.8244550737
scalar OsgEarthNet.uav[13] utilizationSecMaintenance 5391.0542409452
scalar OsgEarthNet.uav[13] utilizationSecCharge 47850
scalar OsgEarthNet.uav[13] utilizationSecIdle 198476.12030398
scalar OsgEarthNet.uav[13] utilizationEnergyMission 35182.615516663
scalar OsgEarthNet.uav[13] utilizationEnergyMaintenance 25427.607475281
scalar OsgEarthNet.uav[13] utilizationEnergyCharge 60430.490234375
scalar OsgEarthNet.uav[13] utilizationEnergyOverdrawMission 0
scalar OsgEarthNet.uav[13] utilizationEnergyOverdrawMaintenance 0
scalar OsgEarthNet.uav[13] utilizationCountMissions 13
scalar OsgEarthNet.uav[13] utilizationCountManeuversMission 118
scalar OsgEarthNet.uav[13] utilizationCountManeuversMaintenance 26
scalar OsgEarthNet.uav[13] utilizationCountChargeState 13
scalar OsgEarthNet.uav[13] utilizationCountOverdrawnAfterMission 0
scalar OsgEarthNet.uav[13] utilizationCountIdleState 14
scalar OsgEarthNet.uav[13] utilizationFail 0
scalar OsgEarthNet.uav[13] simulationTime 259200
scalar OsgEarthNet.uav[14] utilizationSecMission 443.5870541303
scalar OsgEarthNet.uav[14] utilizationSecMaintenance 494.47431392059
scalar OsgEarthNet.uav[14] utilizationSecCharge 3690
scalar OsgEarthNet.uav[14] utilizationSecIdle 254571.93763195
scalar OsgEarthNet.uav[14] utilizationEnergyMission 2186.0393676758
scalar OsgEarthNet.uav[14] utilizationEnergyMaintenance 2427.7973747253
scalar OsgEarthNet.uav[14] utilizationEnergyCharge 4617.4599609375
scalar OsgEarthNet.uav[14] utilizationEnergyOverdrawMission 0
scalar OsgEarthNet.uav[14] utilizationEnergyOverdrawMaintenance 0
scalar OsgEarthNet.uav[14] utilizationCountMissions 1
scalar OsgEarthNet.uav[14] utilizationCountManeuversMission 7
scalar OsgEarthNet.uav[14] utilizationCountManeuversMaintenance 2
scalar OsgEarthNet.uav[14] utilizationCountChargeState 1
scalar OsgEarthNet.uav[14] utilizationCountOverdrawnAfterMission 0
scalar OsgEarthNet.uav[14] utilizationCountIdleState 2
scalar OsgEarthNet.uav[14] utilizationFail 0
scalar OsgEarthNet.uav[14] simulationTime 259200
scalar OsgEarthNet.uav[15] utilizationSecMission 11718.344791846
scalar OsgEarthNet.uav[15] utilizationSecMaintenance 7222.3039202523
scalar OsgEarthNet.uav[15] utilizationSecCharge 70170
scalar OsgEarthNet.uav[15] utilizationSecIdle 170089.3502879
scalar OsgEarthNet.uav[15] utilizationEnergyMission 53989.640068054
scalar OsgEarthNet.uav[15] utilizationEnergyMaintenance 34378.638851166
scalar OsgEarthNet.uav[15] utilizationEnergyCharge 88417.698242188
scalar OsgEarthNet.uav[15] utilizationEnergyOverdrawMission 0
scalar OsgEarthNet.uav[15] utilizationEnergyOverdrawMaintenance 0
scalar OsgEarthNet.uav[15] utilizationCountMissions 19
scalar OsgEarthNet.uav[15] utilizationCountManeuversMission 194
scalar OsgEarthNet.uav[15] utilizationCountManeuversMaintenance 38
scalar OsgEarthNet.uav[15] utilizationCountChargeState 19
scalar OsgEarthNet.uav[15] utilizationCountOverdrawnAfterMission 0
scalar OsgEarthNet.uav[15] utilizationCountIdleState 20
scalar OsgEarthNet.uav[15] utilizationFail 0
scalar OsgEarthNet.uav[15] simulationTime 259200
scalar OsgEarthNet.uav[16] utilizationSecMission 553.12566654921
scalar OsgEarthNet.uav[16] utilizationSecMaintenance 450.43069856406
scalar OsgEarthNet.uav[16] utilizationSecCharge 3720
scalar OsgEarthNet.uav[16] utilizationSecIdle 254476.44263489
scalar OsgEarthNet.uav[16] utilizationEnergyMission 2574.8350372314
scalar OsgEarthNet.uav[16] utilizationEnergyMaintenance 2173.51014328
scalar OsgEarthNet.uav[16] utilizationEnergyCharge 4649.5927734375
scalar OsgEarthNet.uav[16] utilizationEnergyOverdrawMission 0
scalar OsgEarthNet.uav[16] utilizationEnergyOverdrawMaintenance 0
scalar OsgEarthNet.uav[16] utilizationCountMissions 1
scalar OsgEarthNet.uav[16] utilizationCountManeuversMission 9
scalar OsgEarthNet.uav[16] utilizationCountManeuversMaintenance 2
scalar OsgEarthNet.uav[16] utilizationCountChargeState 1
scalar OsgEarthNet.uav[16] utilizationCountOverdrawnAfterMission 0
scalar OsgEarthNet.uav[16] utilizationCountIdleState 2
scalar OsgEarthNet.uav[16] utilizationFail 0
scalar OsgEarthNet.uav[16] simulationTime 259200
scalar OsgEarthNet.uav[17] utilizationSecMission 533.25626237336
scalar OsgEarthNet.uav[17] utilizationSecMaintenance 451.14699917938
scalar OsgEarthNet.uav[17] utilizationSecCharge 3580
scalar OsgEarthNet.uav[17] utilizationSecIdle 254635.59573845
scalar OsgEarthNet.uav[17] utilizationEnergyMission 2448.1385650635
scalar OsgEarthNet.uav[17] utilizationEnergyMaintenance 2039.877696991
scalar OsgEarthNet.uav[17] utilizationEnergyCharge 4431.83203125
scalar OsgEarthNet.uav[17] utilizationEnergyOverdrawMission 0
scalar OsgEarthNet.uav[17] utilizationEnergyOverdrawMaintenance 0
scalar OsgEarthNet.uav[17] utilizationCountMissions 1
scalar OsgEarthNet.uav[17] utilizationCountManeuversMission 8
scalar OsgEarthNet.uav[17] utilizationCountManeuversMaintenance 2
scalar OsgEarthNet.uav[17] utilizationCountChargeState 1
scalar OsgEarthNet.uav[17] utilizationCountOverdrawnAfterMission 0
scalar OsgEarthNet.uav[17] utilizationCountIdleState 2
scalar OsgEarthNet.uav[17] utilizationFail 0
scalar OsgEarthNet.uav[17] simulationTime 259200
scalar OsgEarthNet.uav[18] utilizationSecMission 29402.642437599
scalar OsgEarthNet.uav[18] utilizationSecMaintenance 20606.322490355
scalar OsgEarthNet.uav[18] utilizationSecCharge 181119.03407205
scalar OsgEarthNet.uav[18] utilizationSecIdle 28072
scalar OsgEarthNet.uav[18] utilizationEnergyMission 136515.79722748
scalar OsgEarthNet.uav[18] utilizationEnergyMaintenance 94608.638847351
scalar OsgEarthNet.uav[18] utilizationEnergyCharge 228349.2097168
scalar OsgEarthNet.uav[18] utilizationEnergyOverdrawMission 0
scalar OsgEarthNet.uav[18] utilizationEnergyOverdrawMaintenance 0
scalar OsgEarthNet.uav[18] utilizationCountMissions 50
scalar OsgEarthNet.uav[18] utilizationCountManeuversMission 483
scalar OsgEarthNet.uav[18] utilizationCountManeuversMaintenance 99
scalar OsgEarthNet.uav[18] utilizationCountChargeState 50
scalar OsgEarthNet.uav[18] utilizationCountOverdrawnAfterMission 0
scalar OsgEarthNet.uav[18] utilizationCountIdleState 50
scalar OsgEarthNet.uav[18] utilizationFail 0
scalar OsgEarthNet.uav[18] simulationTime 259200
scalar OsgEarthNet.uav[19] utilizationSecMission 28729.62010199
scalar OsgEarthNet.uav[19] utilizationSecMaintenance 18256.78984885
scalar OsgEarthNet.uav[19] utilizationSecCharge 172700.82308382
scalar OsgEarthNet.uav[19] utilizationSecIdle 39512.765965339
scalar OsgEarthNet.uav[19] utilizationEnergyMission 132313.55446625
scalar OsgEarthNet.uav[19] utilizationEnergyMaintenance 84929.806480408
scalar OsgEarthNet.uav[19] utilizationEnergyCharge 216950.66967773
scalar OsgEarthNet.uav[19] utilizationEnergyOverdrawMission 0
scalar OsgEarthNet.uav[19] utilizationEnergyOverdrawMaintenance 0
scalar OsgEarthNet.uav[19] utilizationCountMissions 48
scalar OsgEarthNet.uav[19] utilizationCountManeuversMission 465
scalar OsgEarthNet.uav[19] utilizationCountManeuversMaintenance 96
scalar OsgEarthNet.uav[19] utilizationCountChargeState 48
scalar OsgEarthNet.uav[19] utilizationCountOverdrawnAfterMission 0
scalar OsgEarthNet.uav[19] utilizationCountIdleState 48
scalar OsgEarthNet.uav[19] utilizationFail 0
scalar OsgEarthNet.uav[19] simulationTime 259200
scalar OsgEarthNet.uav[20] utilizationSecMission 650.68693590098
scalar OsgEarthNet.uav[20] utilizationSecMaintenance 350.31285707965
scalar OsgEarthNet.uav[20] utilizationSecCharge 3760
scalar OsgEarthNet.uav[20] utilizationSecIdle 254438.99920702
scalar OsgEarthNet.uav[20] utilizationEnergyMission 3054.3753967285
scalar OsgEarthNet.uav[20] utilizationEnergyMaintenance 1683.3318710327
scalar OsgEarthNet.uav[20] utilizationEnergyCharge 4737.7045898438
scalar OsgEarthNet.uav[20] utilizationEnergyOverdrawMission 0
scalar OsgEarthNet.uav[20] utilizationEnergyOverdrawMaintenance 0
scalar OsgEarthNet.uav[20] utilizationCountMissions 1
scalar OsgEarthNet.uav[20] utilizationCountManeuversMission 9
scalar OsgEarthNet.uav[20] utilizationCountManeuversMaintenance 2
scalar OsgEarthNet.uav[20] utilizationCountChargeState 1
scalar OsgEarthNet.uav[20] utilizationCountOverdrawnAfterMission 0
scalar OsgEarthNet.uav[20] utilizationCountIdleState 2
scalar OsgEarthNet.uav[20] utilizationFail 0
scalar OsgEarthNet.uav[20] simulationTime 259200
scalar OsgEarthNet.uav[21] utilizationSecMission 27844.696924337
scalar OsgEarthNet.uav[21] utilizationSecMaintenance 16524.735589628
scalar OsgEarthNet.uav[21] utilizationSecCharge 162230.5482245
scalar OsgEarthNet.uav[21] utilizationSecIdle 52600.018261537
scalar OsgEarthNet.uav[21] utilizationEnergyMission 128256.2590065
scalar OsgEarthNet.uav[21] utilizationEnergyMaintenance 77808.673473358
scalar OsgEarthNet.uav[21] utilizationEnergyCharge 205642.64453125
scalar OsgEarthNet.uav[21] utilizationEnergyOverdrawMission 0
scalar OsgEarthNet.uav[21] utilizationEnergyOverdrawMaintenance 0
scalar OsgEarthNet.uav[21] utilizationCountMissions 44
scalar OsgEarthNet.uav[21] utilizationCountManeuversMission 462
scalar OsgEarthNet.uav[21] utilizationCountManeuversMaintenance 88
scalar OsgEarthNet.uav[21] utilizationCountChargeState 44
scalar OsgEarthNet.uav[21] utilizationCountOverdrawnAfterMission 0
scalar OsgEarthNet.uav[21] utilizationCountIdleState 44
scalar OsgEarthNet.uav[21] utilizationFail 0
scalar OsgEarthNet.uav[21] simulationTime 259200
scalar OsgEarthNet.uav[22] utilizationSecMission 6987.9898609196
scalar OsgEarthNet.uav[22] utilizationSecMaintenance 5488.0033526423
scalar OsgEarthNet.uav[22] utilizationSecCharge 46800
scalar OsgEarthNet.uav[22] utilizationSecIdle 199924.00578644
scalar OsgEarthNet.uav[22] utilizationEnergyMission 32320.451499939
scalar OsgEarthNet.uav[22] utilizationEnergyMaintenance 25662.399475098
scalar OsgEarthNet.uav[22] utilizationEnergyCharge 58415.362548828
scalar OsgEarthNet.uav[22] utilizationEnergyOverdrawMission 0
scalar OsgEarthNet.uav[22] utilizationEnergyOverdrawMaintenance 0
scalar OsgEarthNet.uav[22] utilizationCountMissions 13
scalar OsgEarthNet.uav[22] utilizationCountManeuversMission 113
scalar OsgEarthNet.uav[22] utilizationCountManeuversMaintenance 26
scalar OsgEarthNet.uav[22] utilizationCountChargeState 13
scalar OsgEarthNet.uav[22] utilizationCountOverdrawnAfterMission 0
scalar OsgEarthNet.uav[22] utilizationCountIdleState 14
scalar OsgEarthNet.uav[22] utilizationFail 0
scalar OsgEarthNet.uav[22] simulationTime 259200
scalar OsgEarthNet.uav[23] utilizationSecMission 510.19019122229
scalar OsgEarthNet.uav[23] utilizationSecMaintenance 438.84287141926
scalar OsgEarthNet.uav[23] utilizationSecCharge 3560
scalar OsgEarthNet.uav[23] utilizationSecIdle 254690.96593736
scalar OsgEarthNet.uav[23] utilizationEnergyMission 2271.8244628906
scalar OsgEarthNet.uav[23] utilizationEnergyMaintenance 2336.4687004089
scalar OsgEarthNet.uav[23] utilizationEnergyCharge 4441.90234375
scalar OsgEarthNet.uav[23] utilizationEnergyOverdrawMission 0
scalar OsgEarthNet.uav[23] utilizationEnergyOverdrawMaintenance 0
scalar OsgEarthNet.uav[23] utilizationCountMissions 1
scalar OsgEarthNet.uav[23] utilizationCountManeuversMission 8
scalar OsgEarthNet.uav[23] utilizationCountManeuversMaintenance 2
scalar OsgEarthNet.uav[23] utilizationCountChargeState 1
scalar OsgEarthNet.uav[23] utilizationCountOverdrawnAfterMission 0
scalar OsgEarthNet.uav[23] utilizationCountIdleState 2
scalar OsgEarthNet.uav[23] utilizationFail 0
scalar OsgEarthNet.uav[23] simulationTime 259200
scalar OsgEarthNet.uav[24] utilizationSecMission 22511.794747718
scalar OsgEarthNet.uav[24] utilizationSecMaintenance 12214.047577418
scalar OsgEarthNet.uav[24] utilizationSecCharge 124513.0928464
scalar OsgEarthNet.uav[24] utilizationSecIdle 99961.063828465
scalar OsgEarthNet.uav[24] utilizationEnergyMission 104465.15077972
scalar OsgEarthNet.uav[24] utilizationEnergyMaintenance 55775.18598175
scalar OsgEarthNet.uav[24] utilizationEnergyCharge 156631.5668335
scalar OsgEarthNet.uav[24] utilizationEnergyOverdrawMission 0
scalar OsgEarthNet.uav[24] utilizationEnergyOverdrawMaintenance 0
scalar OsgEarthNet.uav[24] utilizationCountMissions 35
scalar OsgEarthNet.uav[24] utilizationCountManeuversMission 370
scalar OsgEarthNet.uav[24] utilizationCountManeuversMaintenance 70
scalar OsgEarthNet.uav[24] utilizationCountChargeState 35
scalar OsgEarthNet.uav[24] utilizationCountOverdrawnAfterMission 0
scalar OsgEarthNet.uav[24] utilizationCountIdleState 35
scalar OsgEarthNet.uav[24] utilizationFail 0
scalar OsgEarthNet.uav[24] simulationTime 259200
scalar OsgEarthNet.uav[25] utilizationSecMission 26007.214023618
scalar OsgEarthNet.uav[25] utilizationSecMaintenance 17444.21139409
scalar OsgEarthNet.uav[25] utilizationSecCharge 158770
scalar OsgEarthNet.uav[25] utilizationSecIdle 56978.573582292
scalar OsgEarthNet.uav[25] utilizationEnergyMission 119353.54245982
scalar OsgEarthNet.uav[25] utilizationEnergyMaintenance 80474.515102386
scalar OsgEarthNet.uav[25] utilizationEnergyCharge 198166.859375
scalar OsgEarthNet.uav[25] utilizationEnergyOverdrawMission 0
scalar OsgEarthNet.uav[25] utilizationEnergyOverdrawMaintenance 0
scalar OsgEarthNet.uav[25] utilizationCountMissions 44
scalar OsgEarthNet.uav[25] utilizationCountManeuversMission 421
scalar OsgEarthNet.uav[25] utilizationCountManeuversMaintenance 89
scalar OsgEarthNet.uav[25] utilizationCountChargeState 44
scalar OsgEarthNet.uav[25] utilizationCountOverdrawnAfterMission 0
scalar OsgEarthNet.uav[25] utilizationCountIdleState 45
scalar OsgEarthNet.uav[25] utilizationFail 0
scalar OsgEarthNet.uav[25] simulationTime 259200
scalar OsgEarthNet.uav[26] utilizationSecMission 574.46784406449
scalar OsgEarthNet.uav[26] utilizationSecMaintenance 438.99680222315
scalar OsgEarthNet.uav[26] utilizationSecCharge 3680
scalar OsgEarthNet.uav[26] utilizationSecIdle 254506.53435371
scalar OsgEarthNet.uav[26] utilizationEnergyMission 2583.5278167725
scalar OsgEarthNet.uav[26] utilizationEnergyMaintenance 2066.4715080261
scalar OsgEarthNet.uav[26] utilizationEnergyCharge 4604.5146484375
scalar OsgEarthNet.uav[26] utilizationEnergyOverdrawMission 0
scalar OsgEarthNet.uav[26] utilizationEnergyOverdrawMaintenance 0
scalar OsgEarthNet.uav[26] utilizationCountMissions 1
scalar OsgEarthNet.uav[26] utilizationCountManeuversMission 9
scalar OsgEarthNet.uav[26] utilizationCountManeuversMaintenance 2
scalar OsgEarthNet.uav[26] utilizationCountChargeState 1
scalar OsgEarthNet.uav[26] utilizationCountOverdrawnAfterMission 0
scalar OsgEarthNet.uav[26] utilizationCountIdleState 2
scalar OsgEarthNet.uav[26] utilizationFail 0
scalar OsgEarthNet.uav[26] simulationTime 259200
scalar OsgEarthNet.uav[27] utilizationSecMission 28226.795344932
scalar OsgEarthNet.uav[27] utilizationSecMaintenance 17605.433746377
scalar OsgEarthNet.uav[27] utilizationSecCharge 166558.38592548
scalar OsgEarthNet.uav[27] utilizationSecIdle 46809.38398321
scalar OsgEarthNet.uav[27] utilizationEnergyMission 130214.06887054
scalar OsgEarthNet.uav[27] utilizationEnergyMaintenance 81372.597248077
scalar OsgEarthNet.uav[27] utilizationEnergyCharge 208929.48950195
scalar OsgEarthNet.uav[27] utilizationEnergyOverdrawMission 0
scalar OsgEarthNet.uav[27] utilizationEnergyOverdrawMaintenance 0
scalar OsgEarthNet.uav[27] utilizationCountMissions 47
scalar OsgEarthNet.uav[27] utilizationCountManeuversMission 459
scalar OsgEarthNet.uav[27] utilizationCountManeuversMaintenance 94
scalar OsgEarthNet.uav[27] utilizationCountChargeState 47
scalar OsgEarthNet.uav[27] utilizationCountOverdrawnAfterMission 0
scalar OsgEarthNet.uav[27] utilizationCountIdleState 47
scalar OsgEarthNet.uav[27] utilizationFail 0
scalar OsgEarthNet.uav[27] simulationTime 259200
scalar OsgEarthNet.uav[28] utilizationSecMission 28464.964922402
scalar OsgEarthNet.uav[28] utilizationSecMaintenance 18869.549141818
scalar OsgEarthNet.uav[28] utilizationSecCharge 174358.03467175
scalar OsgEarthNet.uav[28] utilizationSecIdle 37507.450264031
scalar OsgEarthNet.uav[28] utilizationEnergyMission 131626.42684937
scalar OsgEarthNet.uav[28] utilizationEnergyMaintenance 87311.436252594
scalar OsgEarthNet.uav[28] utilizationEnergyCharge 219114.31054688
scalar OsgEarthNet.uav[28] utilizationEnergyOverdrawMission 0
scalar OsgEarthNet.uav[28] utilizationEnergyOverdrawMaintenance 0
scalar OsgEarthNet.uav[28] utilizationCountMissions 48
scalar OsgEarthNet.uav[28] utilizationCountManeuversMission 469
scalar OsgEarthNet.uav[28] utilizationCountManeuversMaintenance 96
scalar OsgEarthNet.uav[28] utilizationCountChargeState 48
scalar OsgEarthNet.uav[28] utilizationCountOverdrawnAfterMission 0
scalar OsgEarthNet.uav[28] utilizationCountIdleState 48
scalar OsgEarthNet.uav[28] utilizationFail 0
scalar OsgEarthNet.uav[28] simulationTime 259200
scalar OsgEarthNet.uav[29] utilizationSecMission 366.54558454727
scalar OsgEarthNet.uav[29] utilizationSecMaintenance 628.82077470535
scalar OsgEarthNet.uav[29] utilizationSecCharge 3640
scalar OsgEarthNet.uav[29] utilizationSecIdle 254564.63264075
scalar OsgEarthNet.uav[29] utilizationEnergyMission 1642.4102325439
scalar OsgEarthNet.uav[29] utilizationEnergyMaintenance 2917.8547592163
scalar OsgEarthNet.uav[29] utilizationEnergyCharge 4560.267578125
scalar OsgEarthNet.uav[29] utilizationEnergyOverdrawMission 0
scalar OsgEarthNet.uav[29] utilizationEnergyOverdrawMaintenance 0
scalar OsgEarthNet.uav[29] utilizationCountMissions 1
scalar OsgEarthNet.uav[29] utilizationCountManeuversMission 6
scalar OsgEarthNet.uav[29] utilizationCountManeuversMaintenance 2
scalar OsgEarthNet.uav[29] utilizationCountChargeState 1
scalar OsgEarthNet.uav[29] utilizationCountOverdrawnAfterMission 0
scalar OsgEarthNet.uav[29] utilizationCountIdleState 2
scalar OsgEarthNet.uav[29] utilizationFail 0
scalar OsgEarthNet.uav[29] simulationTime 259200
scalar OsgEarthNet.uav[30] utilizationSecMission 24988.214718073
scalar OsgEarthNet.uav[30] utilizationSecMaintenance 18605.887555614
scalar OsgEarthNet.uav[30] utilizationSecCharge 156600
scalar OsgEarthNet.uav[30] utilizationSecIdle 59005.896726312
scalar OsgEarthNet.uav[30] utilizationEnergyMission 114038.42471313
scalar OsgEarthNet.uav[30] utilizationEnergyMaintenance 86041.562275753
scalar OsgEarthNet.uav[30] utilizationEnergyCharge 196255.46655273
scalar OsgEarthNet.uav[30] utilizationEnergyOverdrawMission 0
scalar OsgEarthNet.uav[30] utilizationEnergyOverdrawMaintenance 0
scalar OsgEarthNet.uav[30] utilizationCountMissions 44
scalar OsgEarthNet.uav[30] utilizationCountManeuversMission 408
scalar OsgEarthNet.uav[30] utilizationCountManeuversMaintenance 88
scalar OsgEarthNet.uav[30] utilizationCountChargeState 43
scalar OsgEarthNet.uav[30] utilizationCountOverdrawnAfterMission 0
scalar OsgEarthNet.uav[30] utilizationCountIdleState 44
scalar OsgEarthNet.uav[30] utilizationFail 0
scalar OsgEarthNet.uav[30] simulationTime 259200
scalar OsgEarthNet.uav[31] utilizationSecMission 28580.802112025
scalar OsgEarthNet.uav[31] utilizationSecMaintenance 16399.556543216
scalar OsgEarthNet.uav[31] utilizationSecCharge 166340
scalar OsgEarthNet.uav[31] utilizationSecIdle 47879.640344759
scalar OsgEarthNet.uav[31] utilizationEnergyMission 131739.6268692
scalar OsgEarthNet.uav[31] utilizationEnergyMaintenance 76009.405872345
scalar OsgEarthNet.uav[31] utilizationEnergyCharge 208063.28027344
scalar OsgEarthNet.uav[31] utilizationEnergyOverdrawMission 0
scalar OsgEarthNet.uav[31] utilizationEnergyOverdrawMaintenance 0
scalar OsgEarthNet.uav[31] utilizationCountMissions 46
scalar OsgEarthNet.uav[31] utilizationCountManeuversMission 461
scalar OsgEarthNet.uav[31] utilizationCountManeuversMaintenance 92
scalar OsgEarthNet.uav[31] utilizationCountChargeState 46
scalar OsgEarthNet.uav[31] utilizationCountOverdrawnAfterMission 0
scalar OsgEarthNet.uav[31] utilizationCountIdleState 47
scalar OsgEarthNet.uav[31] utilizationFail 0
scalar OsgEarthNet.uav[31] simulationTime 259200
scalar OsgEarthNet.uav[32] utilizationSecMission 24838.99888532
scalar OsgEarthNet.uav[32] utilizationSecMaintenance 15533.744218469
scalar OsgEarthNet.uav[32] utilizationSecCharge 148286.54783884
scalar OsgEarthNet.uav[32] utilizationSecIdle 70540.708057366
scalar OsgEarthNet.uav[32] utilizationEnergyMission 116013.98266602
scalar OsgEarthNet.uav[32] utilizationEnergyMaintenance 72007.046405792
scalar OsgEarthNet.uav[32] utilizationEnergyCharge 187355.11645508
scalar OsgEarthNet.uav[32] utilizationEnergyOverdrawMission 0
scalar OsgEarthNet.uav[32] utilizationEnergyOverdrawMaintenance 0
scalar OsgEarthNet.uav[32] utilizationCountMissions 41
scalar OsgEarthNet.uav[32] utilizationCountManeuversMission 400
scalar OsgEarthNet.uav[32] utilizationCountManeuversMaintenance 82
scalar OsgEarthNet.uav[32] utilizationCountChargeState 41
scalar OsgEarthNet.uav[32] utilizationCountOverdrawnAfterMission 0
scalar OsgEarthNet.uav[32] utilizationCountIdleState 41
scalar OsgEarthNet.uav[32] utilizationFail 0
scalar OsgEarthNet.uav[32] simulationTime 259200
scalar OsgEarthNet.uav[33] utilizationSecMission 11409.074021191
scalar OsgEarthNet.uav[33] utilizationSecMaintenance 8988.6684780857
scalar OsgEarthNet.uav[33] utilizationSecCharge 75190
scalar OsgEarthNet.uav[33] utilizationSecIdle 163612.25650072
scalar OsgEarthNet.uav[33] utilizationEnergyMission 52685.019546509
scalar OsgEarthNet.uav[33] utilizationEnergyMaintenance 40989.465343475
scalar OsgEarthNet.uav[33] utilizationEnergyCharge 93792.5
scalar OsgEarthNet.uav[33] utilizationEnergyOverdrawMission 0
scalar OsgEarthNet.uav[33] utilizationEnergyOverdrawMaintenance 0
scalar OsgEarthNet.uav[33] utilizationCountMissions 21
scalar OsgEarthNet.uav[33] utilizationCountManeuversMission 189
scalar OsgEarthNet.uav[33] utilizationCountManeuversMaintenance 42
scalar OsgEarthNet.uav[33] utilizationCountChargeState 21
scalar OsgEarthNet.uav[33] utilizationCountOverdrawnAfterMission 0
scalar OsgEarthNet.uav[33] utilizationCountIdleState 22
scalar OsgEarthNet.uav[33] utilizationFail 0
scalar OsgEarthNet.uav[33] simulationTime 259200
scalar OsgEarthNet.uav[34] utilizationSecMission 27710.041500945
scalar OsgEarthNet.uav[34] utilizationSecMaintenance 14635.741508862
scalar OsgEarthNet.uav[34] utilizationSecCharge 153380.45701091
scalar OsgEarthNet.uav[34] utilizationSecIdle 63473.758979284
scalar OsgEarthNet.uav[34] utilizationEnergyMission 126047.0340004
scalar OsgEarthNet.uav[34] utilizationEnergyMaintenance 68239.529006958
scalar OsgEarthNet.uav[34] utilizationEnergyCharge 192671.2253418
scalar OsgEarthNet.uav[34] utilizationEnergyOverdrawMission 0
scalar OsgEarthNet.uav[34] utilizationEnergyOverdrawMaintenance 0
scalar OsgEarthNet.uav[34] utilizationCountMissions 43
scalar OsgEarthNet.uav[34] utilizationCountManeuversMission 447
scalar OsgEarthNet.uav[34] utilizationCountManeuversMaintenance 86
scalar OsgEarthNet.uav[34] utilizationCountChargeState 43
scalar OsgEarthNet.uav[34] utilizationCountOverdrawnAfterMission 0
scalar OsgEarthNet.uav[34] utilizationCountIdleState 43
scalar OsgEarthNet.uav[34] utilizationFail 0
scalar OsgEarthNet.uav[34] simulationTime 259200
scalar OsgEarthNet.uav[35] utilizationSecMission 28402.064614193
scalar OsgEarthNet.uav[35] utilizationSecMaintenance 18953.436444631
scalar OsgEarthNet.uav[35] utilizationSecCharge 170990
scalar OsgEarthNet.uav[35] utilizationSecIdle 40854.497941176
scalar OsgEarthNet.uav[35] utilizationEnergyMission 131937.75358582
scalar OsgEarthNet.uav[35] utilizationEnergyMaintenance 87649.856298933
scalar OsgEarthNet.uav[35] utilizationEnergyCharge 214565.04248047
scalar OsgEarthNet.uav[35] utilizationEnergyOverdrawMission 0
scalar OsgEarthNet.uav[35] utilizationEnergyOverdrawMaintenance 0
scalar OsgEarthNet.uav[35] utilizationCountMissions 48
scalar OsgEarthNet.uav[35] utilizationCountManeuversMission 473
scalar OsgEarthNet.uav[35] utilizationCountManeuversMaintenance 96
scalar OsgEarthNet.uav[35] utilizationCountChargeState 47
scalar OsgEarthNet.uav[35] utilizationCountOverdrawnAfterMission 0
scalar OsgEarthNet.uav[35] utilizationCountIdleState 48
scalar OsgEarthNet.uav[35] utilizationFail 0
scalar OsgEarthNet.uav[35] simulationTime 259200
scalar OsgEarthNet.uav[36] utilizationSecMission 18008.178660669
scalar OsgEarthNet.uav[36] utilizationSecMaintenance 12469.211934448
scalar OsgEarthNet.uav[36] utilizationSecCharge 111464.83322199
scalar OsgEarthNet.uav[36] utilizationSecIdle 117257.7751829
scalar OsgEarthNet.uav[36] utilizationEnergyMission 83270.350120544
scalar OsgEarthNet.uav[36] utilizationEnergyMaintenance 58811.039733887
scalar OsgEarthNet.uav[36] utilizationEnergyCharge 141103.75219727
scalar OsgEarthNet.uav[36] utilizationEnergyOverdrawMission 0
scalar OsgEarthNet.uav[36] utilizationEnergyOverdrawMaintenance 0
scalar OsgEarthNet.uav[36] utilizationCountMissions 31
scalar OsgEarthNet.uav[36] utilizationCountManeuversMission 290
scalar OsgEarthNet.uav[36] utilizationCountManeuversMaintenance 62
scalar OsgEarthNet.uav[36] utilizationCountChargeState 31
scalar OsgEarthNet.uav[36] utilizationCountOverdrawnAfterMission 0
scalar OsgEarthNet.uav[36] utilizationCountIdleState 31
scalar OsgEarthNet.uav[36] utilizationFail 0
scalar OsgEarthNet.uav[36] simulationTime 259200
scalar OsgEarthNet.uav[37] utilizationSecMission 12520.833850926
scalar OsgEarthNet.uav[37] utilizationSecMaintenance 10392.60949454
scalar OsgEarthNet.uav[37] utilizationSecCharge 84380
scalar OsgEarthNet.uav[37] utilizationSecIdle 151906.55565453
scalar OsgEarthNet.uav[37] utilizationEnergyMission 57442.870429993
scalar OsgEarthNet.uav[37] utilizationEnergyMaintenance 48589.225723267
scalar OsgEarthNet.uav[37] utilizationEnergyCharge 106217.92773438
scalar OsgEarthNet.uav[37] utilizationEnergyOverdrawMission 0
scalar OsgEarthNet.uav[37] utilizationEnergyOverdrawMaintenance 0
scalar OsgEarthNet.uav[37] utilizationCountMissions 23
scalar OsgEarthNet.uav[37] utilizationCountManeuversMission 209
scalar OsgEarthNet.uav[37] utilizationCountManeuversMaintenance 46
scalar OsgEarthNet.uav[37] utilizationCountChargeState 23
scalar OsgEarthNet.uav[37] utilizationCountOverdrawnAfterMission 0
scalar OsgEarthNet.uav[37] utilizationCountIdleState 24
scalar OsgEarthNet.uav[37] utilizationFail 0
scalar OsgEarthNet.uav[37] simulationTime 259200
scalar OsgEarthNet.uav[38] utilizationSecMission 15913.131720702
scalar OsgEarthNet.uav[38] utilizationSecMaintenance 9920.8593931711
scalar OsgEarthNet.uav[38] utilizationSecCharge 95190
scalar OsgEarthNet.uav[38] utilizationSecIdle 138176.00788613
scalar OsgEarthNet.uav[38] utilizationEnergyMission 73380.805755615
scalar OsgEarthNet.uav[38] utilizationEnergyMaintenance 46726.767932892
scalar OsgEarthNet.uav[38] utilizationEnergyCharge 119479.10498047
scalar OsgEarthNet.uav[38] utilizationEnergyOverdrawMission 0
scalar OsgEarthNet.uav[38] utilizationEnergyOverdrawMaintenance 0
scalar OsgEarthNet.uav[38] utilizationCountMissions 26
scalar OsgEarthNet.uav[38] utilizationCountManeuversMission 261
scalar OsgEarthNet.uav[38] utilizationCountManeuversMaintenance 52
scalar OsgEarthNet.uav[38] utilizationCountChargeState 26
scalar OsgEarthNet.uav[38] utilizationCountOverdrawnAfterMission 0
scalar OsgEarthNet.uav[38] utilizationCountIdleState 27
scalar OsgEarthNet.uav[38] utilizationFail 0
scalar OsgEarthNet.uav[38] simulationTime 259200
scalar OsgEarthNet.uav[39] utilizationSecMission 28522.075201066
scalar OsgEarthNet.uav[39] utilizationSecMaintenance 19916.711020193
scalar OsgEarthNet.uav[39] utilizationSecCharge 178269.69911779
scalar OsgEarthNet.uav[39] utilizationSecIdle 32491.51366095
scalar OsgEarthNet.uav[39] utilizationEnergyMission 131853.31546021
scalar OsgEarthNet.uav[39] utilizationEnergyMaintenance 92647.702331543
scalar OsgEarthNet.uav[39] utilizationEnergyCharge 223824.98120117
scalar OsgEarthNet.uav[39] utilizationEnergyOverdrawMission 0
scalar OsgEarthNet.uav[39] utilizationEnergyOverdrawMaintenance 0
scalar OsgEarthNet.uav[39] utilizationCountMissions 49
scalar OsgEarthNet.uav[39] utilizationCountManeuversMission 471
scalar OsgEarthNet.uav[39] utilizationCountManeuversMaintenance 98
scalar OsgEarthNet.uav[39] utilizationCountChargeState 49
scalar OsgEarthNet.uav[39] utilizationCountOverdrawnAfterMission 0
scalar OsgEarthNet.uav[39] utilizationCountIdleState 49
scalar OsgEarthNet.uav[39] utilizationFail 0
scalar OsgEarthNet.uav[39] simulationTime 259200
scalar OsgEarthNet.uav[40] utilizationSecMission 536.06111026321
scalar OsgEarthNet.uav[40] utilizationSecMaintenance 387.76056727994
scalar OsgEarthNet.uav[40] utilizationSecCharge 3490
scalar OsgEarthNet.uav[40] utilizationSecIdle 254786.17732246
scalar OsgEarthNet.uav[40] utilizationEnergyMission 2274.8413696289
scalar OsgEarthNet.uav[40] utilizationEnergyMaintenance 2009.167137146
scalar OsgEarthNet.uav[40] utilizationEnergyCharge 4284.0131835938
scalar OsgEarthNet.uav[40] utilizationEnergyOverdrawMission 0
scalar OsgEarthNet.uav[40] utilizationEnergyOverdrawMaintenance 0
scalar OsgEarthNet.uav[40] utilizationCountMissions 1
scalar OsgEarthNet.uav[40] utilizationCountManeuversMission 8
scalar OsgEarthNet.uav[40] utilizationCountManeuversMaintenance 2
scalar OsgEarthNet.uav[40] utilizationCountChargeState 1
scalar OsgEarthNet.uav[40] utilizationCountOverdrawnAfterMission 0
scalar OsgEarthNet.uav[40] utilizationCountIdleState 2
scalar OsgEarthNet.uav[40] utilizationFail 0
scalar OsgEarthNet.uav[40] simulationTime 259200
scalar OsgEarthNet.uav[41] utilizationSecMission 1596.1152601454
scalar OsgEarthNet.uav[41] utilizationSecMaintenance 1278.1031858607
scalar OsgEarthNet.uav[41] utilizationSecCharge 11060
scalar OsgEarthNet.uav[41] utilizationSecIdle 245265.78055399
scalar OsgEarthNet.uav[41] utilizationEnergyMission 7581.6465911865
scalar OsgEarthNet.uav[41] utilizationEnergyMaintenance 6153.9303092957
scalar OsgEarthNet.uav[41] utilizationEnergyCharge 13925.0859375
scalar OsgEarthNet.uav[41] utilizationEnergyOverdrawMission 0
scalar OsgEarthNet.uav[41] utilizationEnergyOverdrawMaintenance 0
scalar OsgEarthNet.uav[41] utilizationCountMissions 3
scalar OsgEarthNet.uav[41] utilizationCountManeuversMission 28
scalar OsgEarthNet.uav[41] utilizationCountManeuversMaintenance 6
scalar OsgEarthNet.uav[41] utilizationCountChargeState 3
scalar OsgEarthNet.uav[41] utilizationCountOverdrawnAfterMission 0
scalar OsgEarthNet.uav[41] utilizationCountIdleState 4
scalar OsgEarthNet.uav[41] utilizationFail 0
scalar OsgEarthNet.uav[41] simulationTime 259200
scalar OsgEarthNet.uav[42] utilizationSecMission 27603.379798015
scalar OsgEarthNet.uav[42] utilizationSecMaintenance 17207.055435906
scalar OsgEarthNet.uav[42] utilizationSecCharge 162688.16528169
scalar OsgEarthNet.uav[42] utilizationSecIdle 51701.398484386
scalar OsgEarthNet.uav[42] utilizationEnergyMission 127464.20315933
scalar OsgEarthNet.uav[42] utilizationEnergyMaintenance 79139.843982697
scalar OsgEarthNet.uav[42] utilizationEnergyCharge 205366.32275391
scalar OsgEarthNet.uav[42] utilizationEnergyOverdrawMission 0
scalar OsgEarthNet.uav[42] utilizationEnergyOverdrawMaintenance 0
scalar OsgEarthNet.uav[42] utilizationCountMissions 45
scalar OsgEarthNet.uav[42] utilizationCountManeuversMission 435
scalar OsgEarthNet.uav[42] utilizationCountManeuversMaintenance 90
scalar OsgEarthNet.uav[42] utilizationCountChargeState 45
scalar OsgEarthNet.uav[42] utilizationCountOverdrawnAfterMission 0
scalar OsgEarthNet.uav[42] utilizationCountIdleState 45
scalar OsgEarthNet.uav[42] utilizationFail 0
scalar OsgEarthNet.uav[42] simulationTime 259200
scalar OsgEarthNet.uav[43] utilizationSecMission 557.08549766445
scalar OsgEarthNet.uav[43] utilizationSecMaintenance 423.57904092458
scalar OsgEarthNet.uav[43] utilizationSecCharge 3920
scalar OsgEarthNet.uav[43] utilizationSecIdle 254299.33446141
scalar OsgEarthNet.uav[43] utilizationEnergyMission 2790.6569213867
scalar OsgEarthNet.uav[43] utilizationEnergyMaintenance 2143.3618392944
scalar OsgEarthNet.uav[43] utilizationEnergyCharge 5002.01953125
scalar OsgEarthNet.uav[43] utilizationEnergyOverdrawMission 0
scalar OsgEarthNet.uav[43] utilizationEnergyOverdrawMaintenance 0
scalar OsgEarthNet.uav[43] utilizationCountMissions 1
scalar OsgEarthNet.uav[43] utilizationCountManeuversMission 9
scalar OsgEarthNet.uav[43] utilizationCountManeuversMaintenance 2
scalar OsgEarthNet.uav[43] utilizationCountChargeState 1
scalar OsgEarthNet.uav[43] utilizationCountOverdrawnAfterMission 0
scalar OsgEarthNet.uav[43] utilizationCountIdleState 2
scalar OsgEarthNet.uav[43] utilizationFail 0
scalar OsgEarthNet.uav[43] simulationTime 259200
scalar OsgEarthNet.uav[44] utilizationSecMission 24549.548935631
scalar OsgEarthNet.uav[44] utilizationSecMaintenance 15678.835005568
scalar OsgEarthNet.uav[44] utilizationSecCharge 145248.89360057
scalar OsgEarthNet.uav[44] utilizationSecIdle 73722.721458235
scalar OsgEarthNet.uav[44] utilizationEnergyMission 113310.41136932
scalar OsgEarthNet.uav[44] utilizationEnergyMaintenance 72441.990825653
scalar OsgEarthNet.uav[44] utilizationEnergyCharge 183640.34277344
scalar OsgEarthNet.uav[44] utilizationEnergyOverdrawMission 0
scalar OsgEarthNet.uav[44] utilizationEnergyOverdrawMaintenance 0
scalar OsgEarthNet.uav[44] utilizationCountMissions 40
scalar OsgEarthNet.uav[44] utilizationCountManeuversMission 408
scalar OsgEarthNet.uav[44] utilizationCountManeuversMaintenance 80
scalar OsgEarthNet.uav[44] utilizationCountChargeState 40
scalar OsgEarthNet.uav[44] utilizationCountOverdrawnAfterMission 0
scalar OsgEarthNet.uav[44] utilizationCountIdleState 40
scalar OsgEarthNet.uav[44] utilizationFail 0
scalar OsgEarthNet.uav[44] simulationTime 259200
scalar OsgEarthNet.uav[45] utilizationSecMission 18066.206765622
scalar OsgEarthNet.uav[45] utilizationSecMaintenance 13386.638188869
scalar OsgEarthNet.uav[45] utilizationSecCharge 116750
scalar OsgEarthNet.uav[45] utilizationSecIdle 110997.15404551
scalar OsgEarthNet.uav[45] utilizationEnergyMission 84213.194892883
scalar OsgEarthNet.uav[45] utilizationEnergyMaintenance 62373.408756256
scalar OsgEarthNet.uav[45] utilizationEnergyCharge 146383.16894531
scalar OsgEarthNet.uav[45] utilizationEnergyOverdrawMission 0
scalar OsgEarthNet.uav[45] utilizationEnergyOverdrawMaintenance 0
scalar OsgEarthNet.uav[45] utilizationCountMissions 32
scalar OsgEarthNet.uav[45] utilizationCountManeuversMission 303
scalar OsgEarthNet.uav[45] utilizationCountManeuversMaintenance 64
scalar OsgEarthNet.uav[45] utilizationCountChargeState 32
scalar OsgEarthNet.uav[45] utilizationCountOverdrawnAfterMission 0
scalar OsgEarthNet.uav[45] utilizationCountIdleState 33
scalar OsgEarthNet.uav[45] utilizationFail 0
scalar OsgEarthNet.uav[45] simulationTime 259200
scalar OsgEarthNet.uav[46] utilizationSecMission 416.51428501943
scalar OsgEarthNet.uav[46] utilizationSecMaintenance 614.10359476363
scalar OsgEarthNet.uav[46] utilizationSecCharge 3730
scalar OsgEarthNet.uav[46] utilizationSecIdle 254439.38112022
scalar OsgEarthNet.uav[46] utilizationEnergyMission 1948.4813461304
scalar OsgEarthNet.uav[46] utilizationEnergyMaintenance 2775.0727043152
scalar OsgEarthNet.uav[46] utilizationEnergyCharge 4723.55078125
scalar OsgEarthNet.uav[46] utilizationEnergyOverdrawMission 0
scalar OsgEarthNet.uav[46] utilizationEnergyOverdrawMaintenance 0
scalar OsgEarthNet.uav[46] utilizationCountMissions 1
scalar OsgEarthNet.uav[46] utilizationCountManeuversMission 8
scalar OsgEarthNet.uav[46] utilizationCountManeuversMaintenance 2
scalar OsgEarthNet.uav[46] utilizationCountChargeState 1
scalar OsgEarthNet.uav[46] utilizationCountOverdrawnAfterMission 0
scalar OsgEarthNet.uav[46] utilizationCountIdleState 2
scalar OsgEarthNet.uav[46] utilizationFail 0
scalar OsgEarthNet.uav[46] simulationTime 259200
scalar OsgEarthNet.uav[47] utilizationSecMission 2119.2756925683
scalar OsgEarthNet.uav[47] utilizationSecMaintenance 884.00202251696
scalar OsgEarthNet.uav[47] utilizationSecCharge 11140
scalar OsgEarthNet.uav[47] utilizationSecIdle 245056.72128491
scalar OsgEarthNet.uav[47] utilizationEnergyMission 10212.679916382
scalar OsgEarthNet.uav[47] utilizationEnergyMaintenance 3929.7616920471
scalar OsgEarthNet.uav[47] utilizationEnergyCharge 13935.041992188
scalar OsgEarthNet.uav[47] utilizationEnergyOverdrawMission 0
scalar OsgEarthNet.uav[47] utilizationEnergyOverdrawMaintenance 0
scalar OsgEarthNet.uav[47] utilizationCountMissions 3
scalar OsgEarthNet.uav[47] utilizationCountManeuversMission 32
scalar OsgEarthNet.uav[47] utilizationCountManeuversMaintenance 6
scalar OsgEarthNet.uav[47] utilizationCountChargeState 3
scalar OsgEarthNet.uav[47] utilizationCountOverdrawnAfterMission 0
scalar OsgEarthNet.uav[47] utilizationCountIdleState 4
scalar OsgEarthNet.uav[47] utilizationFail 0
scalar OsgEarthNet.uav[47] simulationTime 259200
scalar OsgEarthNet.uav[48] utilizationSecMission 2966.4017860467
scalar OsgEarthNet.uav[48] utilizationSecMaintenance 908.46414048791
scalar OsgEarthNet.uav[48] utilizationSecCharge 14300
scalar OsgEarthNet.uav[48] utilizationSecIdle 241025.13307347
scalar OsgEarthNet.uav[48] utilizationEnergyMission 13747.265647888
scalar OsgEarthNet.uav[48] utilizationEnergyMaintenance 3838.8693199158
scalar OsgEarthNet.uav[48] utilizationEnergyCharge 17619.989746094
scalar OsgEarthNet.uav[48] utilizationEnergyOverdrawMission 0
scalar OsgEarthNet.uav[48] utilizationEnergyOverdrawMaintenance 0
scalar OsgEarthNet.uav[48] utilizationCountMissions 4
scalar OsgEarthNet.uav[48] utilizationCountManeuversMission 50
scalar OsgEarthNet.uav[48] utilizationCountManeuversMaintenance 8
scalar OsgEarthNet.uav[48] utilizationCountChargeState 4
scalar OsgEarthNet.uav[48] utilizationCountOverdrawnAfterMission 0
scalar OsgEarthNet.uav[48] utilizationCountIdleState 5
scalar OsgEarthNet.uav[48] utilizationFail 0
scalar OsgEarthNet.uav[48] simulationTime 259200
scalar OsgEarthNet.uav[49] utilizationSecMission 20340.261576263
scalar OsgEarthNet.uav[49] utilizationSecMaintenance 16307.338964982
scalar OsgEarthNet.uav[49] utilizationSecCharge 136070
scalar OsgEarthNet.uav[49] utilizationSecIdle 86482.398458755
scalar OsgEarthNet.uav[49] utilizationEnergyMission 94711.0887146
scalar OsgEarthNet.uav[49] utilizationEnergyMaintenance 75193.032272339
scalar OsgEarthNet.uav[49] utilizationEnergyCharge 169607.38964844
scalar OsgEarthNet.uav[49] utilizationEnergyOverdrawMission 0
scalar OsgEarthNet.uav[49] utilizationEnergyOverdrawMaintenance 0
scalar OsgEarthNet.uav[49] utilizationCountMissions 38
scalar OsgEarthNet.uav[49] utilizationCountManeuversMission 345
scalar OsgEarthNet.uav[49] utilizationCountManeuversMaintenance 76
scalar OsgEarthNet.uav[49] utilizationCountChargeState 38
scalar OsgEarthNet.uav[49] utilizationCountOverdrawnAfterMission 0
scalar OsgEarthNet.uav[49] utilizationCountIdleState 39
scalar OsgEarthNet.uav[49] utilizationFail 0
scalar OsgEarthNet.uav[49] simulationTime 259200
scalar OsgEarthNet.uav[50] utilizationSecMission 28159.687713556
scalar OsgEarthNet.uav[50] utilizationSecMaintenance 20623.541209307
scalar OsgEarthNet.uav[50] utilizationSecCharge 177514.77007714
scalar OsgEarthNet.uav[50] utilizationSecIdle 32902
scalar OsgEarthNet.uav[50] utilizationEnergyMission 128410.92613983
scalar OsgEarthNet.uav[50] utilizationEnergyMaintenance 96910.642776489
scalar OsgEarthNet.uav[50] utilizationEnergyCharge 222130.29284668
scalar OsgEarthNet.uav[50] utilizationEnergyOverdrawMission 0
scalar OsgEarthNet.uav[50] utilizationEnergyOverdrawMaintenance 0
scalar OsgEarthNet.uav[50] utilizationCountMissions 50
scalar OsgEarthNet.uav[50] utilizationCountManeuversMission 462
scalar OsgEarthNet.uav[50] utilizationCountManeuversMaintenance 99
scalar OsgEarthNet.uav[50] utilizationCountChargeState 50
scalar OsgEarthNet.uav[50] utilizationCountOverdrawnAfterMission 0
scalar OsgEarthNet.uav[50] utilizationCountIdleState 49
scalar OsgEarthNet.uav[50] utilizationFail 0
scalar OsgEarthNet.uav[50] simulationTime 259200
scalar OsgEarthNet.uav[51] utilizationSecMission 24134.072996077
scalar OsgEarthNet.uav[51] utilizationSecMaintenance 16265.871518796
scalar OsgEarthNet.uav[51] utilizationSecCharge 147055.26410852
scalar OsgEarthNet.uav[51] utilizationSecIdle 71744.790376607
scalar OsgEarthNet.uav[51] utilizationEnergyMission 111958.28282928
scalar OsgEarthNet.uav[51] utilizationEnergyMaintenance 75495.786895752
scalar OsgEarthNet.uav[51] utilizationEnergyCharge 185339.08935547
scalar OsgEarthNet.uav[51] utilizationEnergyOverdrawMission 0
scalar OsgEarthNet.uav[51] utilizationEnergyOverdrawMaintenance 0
scalar OsgEarthNet.uav[51] utilizationCountMissions 41
scalar OsgEarthNet.uav[51] utilizationCountManeuversMission 405
scalar OsgEarthNet.uav[51] utilizationCountManeuversMaintenance 82
scalar OsgEarthNet.uav[51] utilizationCountChargeState 41
scalar OsgEarthNet.uav[51] utilizationCountOverdrawnAfterMission 0
scalar OsgEarthNet.uav[51] utilizationCountIdleState 41
scalar OsgEarthNet.uav[51] utilizationFail 0
scalar OsgEarthNet.uav[51] simulationTime 259200
scalar OsgEarthNet.uav[52] utilizationSecMission 25640.238423294
scalar OsgEarthNet.uav[52] utilizationSecMaintenance 15513.242536399
scalar OsgEarthNet.uav[52] utilizationSecCharge 149126.68122627
scalar OsgEarthNet.uav[52] utilizationSecIdle 68919.83681404
scalar OsgEarthNet.uav[52] utilizationEnergyMission 119549.97215271
scalar OsgEarthNet.uav[52] utilizationEnergyMaintenance 71899.902565002
scalar OsgEarthNet.uav[52] utilizationEnergyCharge 187211.9675293
scalar OsgEarthNet.uav[52] utilizationEnergyOverdrawMission 0
scalar OsgEarthNet.uav[52] utilizationEnergyOverdrawMaintenance 0
scalar OsgEarthNet.uav[52] utilizationCountMissions 42
scalar OsgEarthNet.uav[52] utilizationCountManeuversMission 426
scalar OsgEarthNet.uav[52] utilizationCountManeuversMaintenance 84
scalar OsgEarthNet.uav[52] utilizationCountChargeState 42
scalar OsgEarthNet.uav[52] utilizationCountOverdrawnAfterMission 0
scalar OsgEarthNet.uav[52] utilizationCountIdleState 42
scalar OsgEarthNet.uav[52] utilizationFail 0
scalar OsgEarthNet.uav[52] simulationTime 259200
scalar OsgEarthNet.uav[53] utilizationSecMission 26140.305907069
scalar OsgEarthNet.uav[53] utilizationSecMaintenance 19684.936375681
scalar OsgEarthNet.uav[53] utilizationSecCharge 166380.11229533
scalar OsgEarthNet.uav[53] utilizationSecIdle 46994.644421923
scalar OsgEarthNet.uav[53] utilizationEnergyMission 120362.0049057
scalar OsgEarthNet.uav[53] utilizationEnergyMaintenance 91189.865497589
scalar OsgEarthNet.uav[53] utilizationEnergyCharge 210563.3581543
scalar OsgEarthNet.uav[53] utilizationEnergyOverdrawMission 0
scalar OsgEarthNet.uav[53] utilizationEnergyOverdrawMaintenance 0
scalar OsgEarthNet.uav[53] utilizationCountMissions 46
scalar OsgEarthNet.uav[53] utilizationCountManeuversMission 430
scalar OsgEarthNet.uav[53] utilizationCountManeuversMaintenance 92
scalar OsgEarthNet.uav[53] utilizationCountChargeState 46
scalar OsgEarthNet.uav[53] utilizationCountOverdrawnAfterMission 0
scalar OsgEarthNet.uav[53] utilizationCountIdleState 45
scalar OsgEarthNet.uav[53] utilizationFail 0
scalar OsgEarthNet.uav[53] simulationTime 259200
scalar OsgEarthNet.uav[54] utilizationSecMission 14043.112447093
scalar OsgEarthNet.uav[54] utilizationSecMaintenance 13342.897192051
scalar OsgEarthNet.uav[54] utilizationSecCharge 100216.45865518
scalar OsgEarthNet.uav[54] utilizationSecIdle 131597.53070567
scalar OsgEarthNet.uav[54] utilizationEnergyMission 65665.44719696
scalar OsgEarthNet.uav[54] utilizationEnergyMaintenance 61875.019954681
scalar OsgEarthNet.uav[54] utilizationEnergyCharge 126899.65087891
scalar OsgEarthNet.uav[54] utilizationEnergyOverdrawMission 0
scalar OsgEarthNet.uav[54] utilizationEnergyOverdrawMaintenance 0
scalar OsgEarthNet.uav[54] utilizationCountMissions 28
scalar OsgEarthNet.uav[54] utilizationCountManeuversMission 240
scalar OsgEarthNet.uav[54] utilizationCountManeuversMaintenance 56
scalar OsgEarthNet.uav[54] utilizationCountChargeState 28
scalar OsgEarthNet.uav[54] utilizationCountOverdrawnAfterMission 0
scalar OsgEarthNet.uav[54] utilizationCountIdleState 27
scalar OsgEarthNet.uav[54] utilizationFail 0
scalar OsgEarthNet.uav[54] simulationTime 259200
scalar OsgEarthNet.uav[55] utilizationSecMission 17242.238920509
scalar OsgEarthNet.uav[55] utilizationSecMaintenance 11505.661483331
scalar OsgEarthNet.uav[55] utilizationSecCharge 104039.39592844
scalar OsgEarthNet.uav[55] utilizationSecIdle 126412.70266772
scalar OsgEarthNet.uav[55] utilizationEnergyMission 79779.426475525
scalar OsgEarthNet.uav[55] utilizationEnergyMaintenance 52756.910610199
scalar OsgEarthNet.uav[55] utilizationEnergyCharge 131778.11938477
scalar OsgEarthNet.uav[55] utilizationEnergyOverdrawMission 0
scalar OsgEarthNet.uav[55] utilizationEnergyOverdrawMaintenance 0
scalar OsgEarthNet.uav[55] utilizationCountMissions 29
scalar OsgEarthNet.uav[55] utilizationCountManeuversMission 287
scalar OsgEarthNet.uav[55] utilizationCountManeuversMaintenance 58
scalar OsgEarthNet.uav[55] utilizationCountChargeState 29
scalar OsgEarthNet.uav[55] utilizationCountOverdrawnAfterMission 0
scalar OsgEarthNet.uav[55] utilizationCountIdleState 27
scalar OsgEarthNet.uav[55] utilizationFail 0
scalar OsgEarthNet.uav[55] simulationTime 259200
scalar OsgEarthNet.uav[56] utilizationSecMission 24741.352849416
scalar OsgEarthNet.uav[56] utilizationSecMaintenance 16192.123272077
scalar OsgEarthNet.uav[56] utilizationSecCharge 147980
scalar OsgEarthNet.uav[56] utilizationSecIdle 70286.522878507
scalar OsgEarthNet.uav[56] utilizationEnergyMission 113009.20123541
scalar OsgEarthNet.uav[56] utilizationEnergyMaintenance 74275.80513382
scalar OsgEarthNet.uav[56] utilizationEnergyCharge 185446.92797852
scalar OsgEarthNet.uav[56] utilizationEnergyOverdrawMission 0
scalar OsgEarthNet.uav[56] utilizationEnergyOverdrawMaintenance 0
scalar OsgEarthNet.uav[56] utilizationCountMissions 41
scalar OsgEarthNet.uav[56] utilizationCountManeuversMission 397
scalar OsgEarthNet.uav[56] utilizationCountManeuversMaintenance 83
scalar OsgEarthNet.uav[56] utilizationCountChargeState 41
scalar OsgEarthNet.uav[56] utilizationCountOverdrawnAfterMission 0
scalar OsgEarthNet.uav[56] utilizationCountIdleState 41
scalar OsgEarthNet.uav[56] utilizationFail 0
scalar OsgEarthNet.uav[56] simulationTime 259200
scalar OsgEarthNet.uav[57] utilizationSecMission 21027.538934508
scalar OsgEarthNet.uav[57] utilizationSecMaintenance 13731.461446646
scalar OsgEarthNet.uav[57] utilizationSecCharge 127500
scalar OsgEarthNet.uav[57] utilizationSecIdle 96940.998618846
scalar OsgEarthNet.uav[57] utilizationEnergyMission 97210.597961426
scalar OsgEarthNet.uav[57] utilizationEnergyMaintenance 64153.151302338
scalar OsgEarthNet.uav[57] utilizationEnergyCharge 160475.25927734
scalar OsgEarthNet.uav[57] utilizationEnergyOverdrawMission 0
scalar OsgEarthNet.uav[57] utilizationEnergyOverdrawMaintenance 0
scalar OsgEarthNet.uav[57] utilizationCountMissions 35
scalar OsgEarthNet.uav[57] utilizationCountManeuversMission 340
scalar OsgEarthNet.uav[57] utilizationCountManeuversMaintenance 70
scalar OsgEarthNet.uav[57] utilizationCountChargeState 35
scalar OsgEarthNet.uav[57] utilizationCountOverdrawnAfterMission 0
scalar OsgEarthNet.uav[57] utilizationCountIdleState 34
scalar OsgEarthNet.uav[57] utilizationFail 0
scalar OsgEarthNet.uav[57] simulationTime 259200
scalar OsgEarthNet.uav[58] utilizationSecMission 23884.611709073
scalar OsgEarthNet.uav[58] utilizationSecMaintenance 17738.447252034
scalar OsgEarthNet.uav[58] utilizationSecCharge 153167.30895823
scalar OsgEarthNet.uav[58] utilizationSecIdle 64409.631080665
scalar OsgEarthNet.uav[58] utilizationEnergyMission 111436.45986938
scalar OsgEarthNet.uav[58] utilizationEnergyMaintenance 83334.222145081
scalar OsgEarthNet.uav[58] utilizationEnergyCharge 194514.4387207
scalar OsgEarthNet.uav[58] utilizationEnergyOverdrawMission 0
scalar OsgEarthNet.uav[58] utilizationEnergyOverdrawMaintenance 0
scalar OsgEarthNet.uav[58] utilizationCountMissions 42
scalar OsgEarthNet.uav[58] utilizationCountManeuversMission 389
scalar OsgEarthNet.uav[58] utilizationCountManeuversMaintenance 84
scalar OsgEarthNet.uav[58] utilizationCountChargeState 42
scalar OsgEarthNet.uav[58] utilizationCountOverdrawnAfterMission 0
scalar OsgEarthNet.uav[58] utilizationCountIdleState 40
scalar OsgEarthNet.uav[58] utilizationFail 0
scalar OsgEarthNet.uav[58] simulationTime 259200
scalar OsgEarthNet.uav[59] utilizationSecMission 22016.759491894
scalar OsgEarthNet.uav[59] utilizationSecMaintenance 19028.524393883
scalar OsgEarthNet.uav[59] utilizationSecCharge 150680
scalar OsgEarthNet.uav[59] utilizationSecIdle 67474.715114223
scalar OsgEarthNet.uav[59] utilizationEnergyMission 102265.30138397
scalar OsgEarthNet.uav[59] utilizationEnergyMaintenance 86427.611053467
scalar OsgEarthNet.uav[59] utilizationEnergyCharge 188611.61425781
scalar OsgEarthNet.uav[59] utilizationEnergyOverdrawMission 0
scalar OsgEarthNet.uav[59] utilizationEnergyOverdrawMaintenance 0
scalar OsgEarthNet.uav[59] utilizationCountMissions 42
scalar OsgEarthNet.uav[59] utilizationCountManeuversMission 360
scalar OsgEarthNet.uav[59] utilizationCountManeuversMaintenance 84
scalar OsgEarthNet.uav[59] utilizationCountChargeState 42
scalar OsgEarthNet.uav[59] utilizationCountOverdrawnAfterMission 0
scalar OsgEarthNet.uav[59] utilizationCountIdleState 39
scalar OsgEarthNet.uav[59] utilizationFail 0
scalar OsgEarthNet.uav[59] simulationTime 259200
scalar OsgEarthNet.uav[60] utilizationSecMission 26317.932507124
scalar OsgEarthNet.uav[60] utilizationSecMaintenance 21142.65834211
scalar OsgEarthNet.uav[60] utilizationSecCharge 170607.26833762
scalar OsgEarthNet.uav[60] utilizationSecIdle 41132.139813144
scalar OsgEarthNet.uav[60] utilizationEnergyMission 121824.97144318
scalar OsgEarthNet.uav[60] utilizationEnergyMaintenance 97662.897525787
scalar OsgEarthNet.uav[60] utilizationEnergyCharge 215469.70343018
scalar OsgEarthNet.uav[60] utilizationEnergyOverdrawMission 0
scalar OsgEarthNet.uav[60] utilizationEnergyOverdrawMaintenance 0
scalar OsgEarthNet.uav[60] utilizationCountMissions 48
scalar OsgEarthNet.uav[60] utilizationCountManeuversMission 427
scalar OsgEarthNet.uav[60] utilizationCountManeuversMaintenance 96
scalar OsgEarthNet.uav[60] utilizationCountChargeState 48
scalar OsgEarthNet.uav[60] utilizationCountOverdrawnAfterMission 0
scalar OsgEarthNet.uav[60] utilizationCountIdleState 42
scalar OsgEarthNet.uav[60] utilizationFail 0
scalar OsgEarthNet.uav[60] simulationTime 259200
scalar OsgEarthNet.uav[61] utilizationSecMission 25030.202134325
scalar OsgEarthNet.uav[61] utilizationSecMaintenance 19678.366457076
scalar OsgEarthNet.uav[61] utilizationSecCharge 160602.161366
scalar OsgEarthNet.uav[61] utilizationSecIdle 53889.269042598
scalar OsgEarthNet.uav[61] utilizationEnergyMission 117328.54588318
scalar OsgEarthNet.uav[61] utilizationEnergyMaintenance 88295.2643013
scalar OsgEarthNet.uav[61] utilizationEnergyCharge 201547.01861572
scalar OsgEarthNet.uav[61] utilizationEnergyOverdrawMission 0
scalar OsgEarthNet.uav[61] utilizationEnergyOverdrawMaintenance 0
scalar OsgEarthNet.uav[61] utilizationCountMissions 46
scalar OsgEarthNet.uav[61] utilizationCountManeuversMission 396
scalar OsgEarthNet.uav[61] utilizationCountManeuversMaintenance 92
scalar OsgEarthNet.uav[61] utilizationCountChargeState 46
scalar OsgEarthNet.uav[61] utilizationCountOverdrawnAfterMission 0
scalar OsgEarthNet.uav[61] utilizationCountIdleState 41
scalar OsgEarthNet.uav[61] utilizationFail 0
scalar OsgEarthNet.uav[61] simulationTime 259200
scalar OsgEarthNet.uav[62] utilizationSecMission 25796.091593869
scalar OsgEarthNet.uav[62] utilizationSecMaintenance 21797.202043589
scalar OsgEarthNet.uav[62] utilizationSecCharge 174060
scalar OsgEarthNet.uav[62] utilizationSecIdle 37546.705362542
scalar OsgEarthNet.uav[62] utilizationEnergyMission 120070.66148002
scalar OsgEarthNet.uav[62] utilizationEnergyMaintenance 102103.83300781
scalar OsgEarthNet.uav[62] utilizationEnergyCharge 219906.80493164
scalar OsgEarthNet.uav[62] utilizationEnergyOverdrawMission 0
scalar OsgEarthNet.uav[62] utilizationEnergyOverdrawMaintenance 0
scalar OsgEarthNet.uav[62] utilizationCountMissions 48
scalar OsgEarthNet.uav[62] utilizationCountManeuversMission 428
scalar OsgEarthNet.uav[62] utilizationCountManeuversMaintenance 97
scalar OsgEarthNet.uav[62] utilizationCountChargeState 48
scalar OsgEarthNet.uav[62] utilizationCountOverdrawnAfterMission 0
scalar OsgEarthNet.uav[62] utilizationCountIdleState 38
scalar OsgEarthNet.uav[62] utilizationFail 0
scalar OsgEarthNet.uav[62] simulationTime 259200
scalar OsgEarthNet.uav[63] utilizationSecMission 27246.198080576
scalar OsgEarthNet.uav[63] utilizationSecMaintenance 20693.721054831
scalar OsgEarthNet.uav[63] utilizationSecCharge 173351.28054893
scalar OsgEarthNet.uav[63] utilizationSecIdle 37908.799315659
scalar OsgEarthNet.uav[63] utilizationEnergyMission 124791.88121033
scalar OsgEarthNet.uav[63] utilizationEnergyMaintenance 96270.266902924
scalar OsgEarthNet.uav[63] utilizationEnergyCharge 217404.38745117
scalar OsgEarthNet.uav[63] utilizationEnergyOverdrawMission 0
scalar OsgEarthNet.uav[63] utilizationEnergyOverdrawMaintenance 0
scalar OsgEarthNet.uav[63] utilizationCountMissions 49
scalar OsgEarthNet.uav[63] utilizationCountManeuversMission 439
scalar OsgEarthNet.uav[63] utilizationCountManeuversMaintenance 98
scalar OsgEarthNet.uav[63] utilizationCountChargeState 49
scalar OsgEarthNet.uav[63] utilizationCountOverdrawnAfterMission 0
scalar OsgEarthNet.uav[63] utilizationCountIdleState 45
scalar OsgEarthNet.uav[63] utilizationFail 0
scalar OsgEarthNet.uav[63] simulationTime 259200
scalar OsgEarthNet.uav[64] utilizationSecMission 28380.445872554
scalar OsgEarthNet.uav[64] utilizationSecMaintenance 20494.541927699
scalar OsgEarthNet.uav[64] utilizationSecCharge 177470.05824997
scalar OsgEarthNet.uav[64] utilizationSecIdle 32854.952949775
scalar OsgEarthNet.uav[64] utilizationEnergyMission 131869.16036987
scalar OsgEarthNet.uav[64] utilizationEnergyMaintenance 95064.687015533
scalar OsgEarthNet.uav[64] utilizationEnergyCharge 223454.60400391
scalar OsgEarthNet.uav[64] utilizationEnergyOverdrawMission 0
scalar OsgEarthNet.uav[64] utilizationEnergyOverdrawMaintenance 0
scalar OsgEarthNet.uav[64] utilizationCountMissions 50
scalar OsgEarthNet.uav[64] utilizationCountManeuversMission 452
scalar OsgEarthNet.uav[64] utilizationCountManeuversMaintenance 100
scalar OsgEarthNet.uav[64] utilizationCountChargeState 50
scalar OsgEarthNet.uav[64] utilizationCountOverdrawnAfterMission 0
scalar OsgEarthNet.uav[64] utilizationCountIdleState 46
scalar OsgEarthNet.uav[64] utilizationFail 0
scalar OsgEarthNet.uav[64] simulationTime 259200
scalar OsgEarthNet.uav[65] utilizationSecMission 28474.368238306
scalar OsgEarthNet.uav[65] utilizationSecMaintenance 21963.071631075
scalar OsgEarthNet.uav[65] utilizationSecCharge 183323.3395167
scalar OsgEarthNet.uav[65] utilizationSecIdle 25439.219613916
scalar OsgEarthNet.uav[65] utilizationEnergyMission 133375.66177368
scalar OsgEarthNet.uav[65] utilizationEnergyMaintenance 100723.78424072
scalar OsgEarthNet.uav[65] utilizationEnergyCharge 232515.51782227
scalar OsgEarthNet.uav[65] utilizationEnergyOverdrawMission 0
scalar OsgEarthNet.uav[65] utilizationEnergyOverdrawMaintenance 0
scalar OsgEarthNet.uav[65] utilizationCountMissions 51
scalar OsgEarthNet.uav[65] utilizationCountManeuversMission 468
scalar OsgEarthNet.uav[65] utilizationCountManeuversMaintenance 102
scalar OsgEarthNet.uav[65] utilizationCountChargeState 51
scalar OsgEarthNet.uav[65] utilizationCountOverdrawnAfterMission 0
scalar OsgEarthNet.uav[65] utilizationCountIdleState 42
scalar OsgEarthNet.uav[65] utilizationFail 0
scalar OsgEarthNet.uav[65] simulationTime 259200
scalar OsgEarthNet.uav[66] utilizationSecMission 30634.054390412
scalar OsgEarthNet.uav[66] utilizationSecMaintenance 20145.300962629
scalar OsgEarthNet.uav[66] utilizationSecCharge 184118.64364696
scalar OsgEarthNet.uav[66] utilizationSecIdle 24302
scalar OsgEarthNet.uav[66] utilizationEnergyMission 139223.49021149
scalar OsgEarthNet.uav[66] utilizationEnergyMaintenance 92989.762378693
scalar OsgEarthNet.uav[66] utilizationEnergyCharge 231721.49804688
scalar OsgEarthNet.uav[66] utilizationEnergyOverdrawMission 0
scalar OsgEarthNet.uav[66] utilizationEnergyOverdrawMaintenance 0
scalar OsgEarthNet.uav[66] utilizationCountMissions 51
scalar OsgEarthNet.uav[66] utilizationCountManeuversMission 490
scalar OsgEarthNet.uav[66] utilizationCountManeuversMaintenance 101
scalar OsgEarthNet.uav[66] utilizationCountChargeState 51
scalar OsgEarthNet.uav[66] utilizationCountOverdrawnAfterMission 0
scalar OsgEarthNet.uav[66] utilizationCountIdleState 45
scalar OsgEarthNet.uav[66] utilizationFail 0
scalar OsgEarthNet.uav[66] simulationTime 259200
scalar OsgEarthNet.uav[67] utilizationSecMission 27650.364644177
scalar OsgEarthNet.uav[67] utilizationSecMaintenance 22786.430448063
scalar OsgEarthNet.uav[67] utilizationSecCharge 183450
scalar OsgEarthNet.uav[67] utilizationSecIdle 25313.20390776
scalar OsgEarthNet.uav[67] utilizationEnergyMission 126176.73594778
scalar OsgEarthNet.uav[67] utilizationEnergyMaintenance 106099.23635483
scalar OsgEarthNet.uav[67] utilizationEnergyCharge 230670.56542969
scalar OsgEarthNet.uav[67] utilizationEnergyOverdrawMission 0
scalar OsgEarthNet.uav[67] utilizationEnergyOverdrawMaintenance 0
scalar OsgEarthNet.uav[67] utilizationCountMissions 51
scalar OsgEarthNet.uav[67] utilizationCountManeuversMission 451
scalar OsgEarthNet.uav[67] utilizationCountManeuversMaintenance 103
scalar OsgEarthNet.uav[67] utilizationCountChargeState 51
scalar OsgEarthNet.uav[67] utilizationCountOverdrawnAfterMission 0
scalar OsgEarthNet.uav[67] utilizationCountIdleState 44
scalar OsgEarthNet.uav[67] utilizationFail 0
scalar OsgEarthNet.uav[67] simulationTime 259200
scalar OsgEarthNet.uav[68] utilizationSecMission 32129.377421696
scalar OsgEarthNet.uav[68] utilizationSecMaintenance 19419.602399223
scalar OsgEarthNet.uav[68] utilizationSecCharge 186220.97663167
scalar OsgEarthNet.uav[68] utilizationSecIdle 21430.042547415
scalar OsgEarthNet.uav[68] utilizationEnergyMission 148405.98959351
scalar OsgEarthNet.uav[68] utilizationEnergyMaintenance 90282.596683502
scalar OsgEarthNet.uav[68] utilizationEnergyCharge 237460.75390625
scalar OsgEarthNet.uav[68] utilizationEnergyOverdrawMission 0
scalar OsgEarthNet.uav[68] utilizationEnergyOverdrawMaintenance 0
scalar OsgEarthNet.uav[68] utilizationCountMissions 51
scalar OsgEarthNet.uav[68] utilizationCountManeuversMission 527
scalar OsgEarthNet.uav[68] utilizationCountManeuversMaintenance 102
scalar OsgEarthNet.uav[68] utilizationCountChargeState 51
scalar OsgEarthNet.uav[68] utilizationCountOverdrawnAfterMission 0
scalar OsgEarthNet.uav[68] utilizationCountIdleState 37
scalar OsgEarthNet.uav[68] utilizationFail 0
scalar OsgEarthNet.uav[68] simulationTime 259200
scalar OsgEarthNet.uav[69] utilizationSecMission 28852.469193341
scalar OsgEarthNet.uav[69] utilizationSecMaintenance 22009.172361335
scalar OsgEarthNet.uav[69] utilizationSecCharge 185109.65953275
scalar OsgEarthNet.uav[69] utilizationSecIdle 23228.697912574
scalar OsgEarthNet.uav[69] utilizationEnergyMission 133667.39189911
scalar OsgEarthNet.uav[69] utilizationEnergyMaintenance 102433.49065018
scalar OsgEarthNet.uav[69] utilizationEnergyCharge 235815.22265625
scalar OsgEarthNet.uav[69] utilizationEnergyOverdrawMission 0
scalar OsgEarthNet.uav[69] utilizationEnergyOverdrawMaintenance 0
scalar OsgEarthNet.uav[69] utilizationCountMissions 52
scalar OsgEarthNet.uav[69] utilizationCountManeuversMission 476
scalar OsgEarthNet.uav[69] utilizationCountManeuversMaintenance 104
scalar OsgEarthNet.uav[69] utilizationCountChargeState 52
scalar OsgEarthNet.uav[69] utilizationCountOverdrawnAfterMission 0
scalar OsgEarthNet.uav[69] utilizationCountIdleState 34
scalar OsgEarthNet.uav[69] utilizationFail 0
scalar OsgEarthNet.uav[69] simulationTime 259200
scalar OsgEarthNet.cs[0] usedPower 2074329.8359519
scalar OsgEarthNet.cs[0] chargedPower 2074329.8359519
scalar OsgEarthNet.cs[0] chargedMobileNodes 435
scalar OsgEarthNet.cs[0] reservations 464
scalar OsgEarthNet.cs[1] usedPower 3101579.094391
scalar OsgEarthNet.cs[1] chargedPower 3101579.094391
scalar OsgEarthNet.cs[1] chargedMobileNodes 639
scalar OsgEarthNet.cs[1] reservations 675
scalar OsgEarthNet.cs[2] usedPower 4784611.9511362
scalar OsgEarthNet.cs[2] chargedPower 4784611.9511362
scalar OsgEarthNet.cs[2] chargedMobileNodes 991
scalar OsgEarthNet.cs[2] reservations 1058

