version 2
run Szenario_Hotel_Gabelbach-25-20180710-14:28:44-28436
attr configname Szenario_Hotel_Gabelbach
attr datetime 20180710-14:28:44
attr experiment Szenario_Hotel_Gabelbach
attr inifile omnetpp.ini
attr iterationvars "$replM=0, $replSearchM=1"
attr iterationvarsf replM=0,replSearchM=1-
attr measurement "$replM=0, $replSearchM=1"
attr network OsgEarthNet
attr processid 28436
attr repetition 9
attr replication #9
attr resultdir results
attr runnumber 25
attr seedset 25
itervar replM 0
itervar replSearchM 1
param *.osgEarthScene.scene "\"Szenario_Hotel_Gabelbach.earth\""
param *.playgroundLatitude 50.6830269
param *.playgroundLongitude 10.8538055
param *.playgroundWidth 3500m
param *.playgroundHeight 3500m
param *.numUAVs 100
param *.cs[0].posX 3537m
param *.cs[0].posY 965m
param *.cs[0].posZ 538m
param *.cs[1].posX 312m
param *.cs[1].posY 1262m
param *.cs[1].posZ 539m
param *.cs[2].posX 2185m
param *.cs[2].posY 3026m
param *.cs[2].posZ 777m
param *.cs[3].posX 10m
param *.cs[3].posY 2200m
param *.cs[3].posZ 560m
param *.cs[4].posX 750m
param *.cs[4].posY 200m
param *.cs[4].posZ 540m
param *.cs[5].posX 2450m
param *.cs[5].posY 180m
param *.cs[5].posZ 524m
param *.cs[6].posX 3140m
param *.cs[6].posY 1790m
param *.cs[6].posZ 606m
param *.numCSs 7
param *.uav[*].replacementMethod 0
param *.missionControl.replacementSearchMethod 1
param *.*.timeStep 10s
param *.uav[*].commandPreviewCommandCount 20
param *.missionControl.missionFiles "\"missions\\\\Szenario_WB_Hotel_Gabelbach_Mission_Hotel.waypoints,missions\\\\Szenario_WB_Hotel_Gabelbach_Mission_Kickelhahn.waypoints,missions\\\\Szenario_WB_Hotel_Gabelbach_Mission_Ilmenau_Sportplatz.waypoints,missions\\\\Szenario_WB_Hotel_Gabelbach_Mission_Manebach_Mitte.waypoints,missions\\\\Szenario_WB_Hotel_Gabelbach_Mission_Manebach_Sued.waypoints\""
param *.missionControl.missionFiles "\"missions\\\\Szenario_WB_Hotel_Gabelbach_Mission_Hotel.waypoints,missions\\\\Szenario_WB_Hotel_Gabelbach_Mission_Kickelhahn.waypoints,missions\\\\Szenario_WB_Hotel_Gabelbach_Mission_Ilmenau_Sportplatz.waypoints,missions\\\\Szenario_WB_Hotel_Gabelbach_Mission_Manebach_Mitte.waypoints,missions\\\\Szenario_WB_Hotel_Gabelbach_Mission_Manebach_Sued.waypoints,missions\\\\Szenario_WB_Hotel_Gabelbach_Hover_HoheSchlaufe.waypoints,missions\\\\Szenario_WB_Hotel_Gabelbach_Hover_Kickelhahn.waypoints,missions\\\\Szenario_WB_Hotel_Gabelbach_Hover_Gabelbachskopf.waypoints,missions\\\\Szenario_WB_Hotel_Gabelbach_Hover_Dachskopf.waypoints\""
param *.uav[0].startX 3537m
param *.uav[0].startY 965m
param *.uav[0].startZ 539m
param *.uav[1].startX 312m
param *.uav[1].startY 1262m
param *.uav[1].startZ 540m
param *.uav[2].startX 2185m
param *.uav[2].startY 3026m
param *.uav[2].startZ 778m
param *.uav[3].startX 3537m
param *.uav[3].startY 965m
param *.uav[3].startZ 539m
param *.uav[4].startX 312m
param *.uav[4].startY 1262m
param *.uav[4].startZ 540m
param *.uav[5].startX 2185m
param *.uav[5].startY 3026m
param *.uav[5].startZ 778m
param *.uav[6].startX 3537m
param *.uav[6].startY 965m
param *.uav[6].startZ 539m
param *.uav[7].startX 312m
param *.uav[7].startY 1262m
param *.uav[7].startZ 540m
param *.uav[8].startX 2185m
param *.uav[8].startY 3026m
param *.uav[8].startZ 778m
param *.uav[9].startX 3537m
param *.uav[9].startY 965m
param *.uav[9].startZ 539m
param *.uav[10].startX 3537m
param *.uav[10].startY 965m
param *.uav[10].startZ 539m
param *.uav[11].startX 312m
param *.uav[11].startY 1262m
param *.uav[11].startZ 540m
param *.uav[12].startX 2185m
param *.uav[12].startY 3026m
param *.uav[12].startZ 778m
param *.uav[13].startX 3537m
param *.uav[13].startY 965m
param *.uav[13].startZ 539m
param *.uav[14].startX 312m
param *.uav[14].startY 1262m
param *.uav[14].startZ 540m
param *.uav[15].startX 2185m
param *.uav[15].startY 3026m
param *.uav[15].startZ 778m
param *.uav[16].startX 3537m
param *.uav[16].startY 965m
param *.uav[16].startZ 539m
param *.uav[17].startX 312m
param *.uav[17].startY 1262m
param *.uav[17].startZ 540m
param *.uav[18].startX 2185m
param *.uav[18].startY 3026m
param *.uav[18].startZ 778m
param *.uav[19].startX 3537m
param *.uav[19].startY 965m
param *.uav[19].startZ 539m
param *.uav[20].startX 3537m
param *.uav[20].startY 965m
param *.uav[20].startZ 539m
param *.uav[21].startX 312m
param *.uav[21].startY 1262m
param *.uav[21].startZ 540m
param *.uav[22].startX 2185m
param *.uav[22].startY 3026m
param *.uav[22].startZ 778m
param *.uav[23].startX 3537m
param *.uav[23].startY 965m
param *.uav[23].startZ 539m
param *.uav[24].startX 312m
param *.uav[24].startY 1262m
param *.uav[24].startZ 540m
param *.uav[25].startX 2185m
param *.uav[25].startY 3026m
param *.uav[25].startZ 778m
param *.uav[26].startX 3537m
param *.uav[26].startY 965m
param *.uav[26].startZ 539m
param *.uav[27].startX 312m
param *.uav[27].startY 1262m
param *.uav[27].startZ 540m
param *.uav[28].startX 2185m
param *.uav[28].startY 3026m
param *.uav[28].startZ 778m
param *.uav[29].startX 3537m
param *.uav[29].startY 965m
param *.uav[29].startZ 539m
param *.uav[30].startX 3537m
param *.uav[30].startY 965m
param *.uav[30].startZ 539m
param *.uav[31].startX 312m
param *.uav[31].startY 1262m
param *.uav[31].startZ 540m
param *.uav[32].startX 2185m
param *.uav[32].startY 3026m
param *.uav[32].startZ 778m
param *.uav[33].startX 3537m
param *.uav[33].startY 965m
param *.uav[33].startZ 539m
param *.uav[34].startX 312m
param *.uav[34].startY 1262m
param *.uav[34].startZ 540m
param *.uav[35].startX 2185m
param *.uav[35].startY 3026m
param *.uav[35].startZ 778m
param *.uav[36].startX 3537m
param *.uav[36].startY 965m
param *.uav[36].startZ 539m
param *.uav[37].startX 312m
param *.uav[37].startY 1262m
param *.uav[37].startZ 540m
param *.uav[38].startX 2185m
param *.uav[38].startY 3026m
param *.uav[38].startZ 778m
param *.uav[39].startX 3537m
param *.uav[39].startY 965m
param *.uav[39].startZ 539m
param *.uav[40].startX 3537m
param *.uav[40].startY 965m
param *.uav[40].startZ 539m
param *.uav[41].startX 312m
param *.uav[41].startY 1262m
param *.uav[41].startZ 540m
param *.uav[42].startX 2185m
param *.uav[42].startY 3026m
param *.uav[42].startZ 778m
param *.uav[43].startX 3537m
param *.uav[43].startY 965m
param *.uav[43].startZ 539m
param *.uav[44].startX 312m
param *.uav[44].startY 1262m
param *.uav[44].startZ 540m
param *.uav[45].startX 2185m
param *.uav[45].startY 3026m
param *.uav[45].startZ 778m
param *.uav[46].startX 3537m
param *.uav[46].startY 965m
param *.uav[46].startZ 539m
param *.uav[47].startX 312m
param *.uav[47].startY 1262m
param *.uav[47].startZ 540m
param *.uav[48].startX 2185m
param *.uav[48].startY 3026m
param *.uav[48].startZ 778m
param *.uav[49].startX 3537m
param *.uav[49].startY 965m
param *.uav[49].startZ 539m
param *.uav[50].startX 3537m
param *.uav[50].startY 965m
param *.uav[50].startZ 539m
param *.uav[51].startX 312m
param *.uav[51].startY 1262m
param *.uav[51].startZ 540m
param *.uav[52].startX 2185m
param *.uav[52].startY 3026m
param *.uav[52].startZ 778m
param *.uav[53].startX 3537m
param *.uav[53].startY 965m
param *.uav[53].startZ 539m
param *.uav[54].startX 312m
param *.uav[54].startY 1262m
param *.uav[54].startZ 540m
param *.uav[55].startX 2185m
param *.uav[55].startY 3026m
param *.uav[55].startZ 778m
param *.uav[56].startX 3537m
param *.uav[56].startY 965m
param *.uav[56].startZ 539m
param *.uav[57].startX 312m
param *.uav[57].startY 1262m
param *.uav[57].startZ 540m
param *.uav[58].startX 2185m
param *.uav[58].startY 3026m
param *.uav[58].startZ 778m
param *.uav[59].startX 3537m
param *.uav[59].startY 965m
param *.uav[59].startZ 539m
param *.uav[60].startX 3537m
param *.uav[60].startY 965m
param *.uav[60].startZ 539m
param *.uav[61].startX 312m
param *.uav[61].startY 1262m
param *.uav[61].startZ 540m
param *.uav[62].startX 2185m
param *.uav[62].startY 3026m
param *.uav[62].startZ 778m
param *.uav[63].startX 3537m
param *.uav[63].startY 965m
param *.uav[63].startZ 539m
param *.uav[64].startX 312m
param *.uav[64].startY 1262m
param *.uav[64].startZ 540m
param *.uav[65].startX 2185m
param *.uav[65].startY 3026m
param *.uav[65].startZ 778m
param *.uav[66].startX 3537m
param *.uav[66].startY 965m
param *.uav[66].startZ 539m
param *.uav[67].startX 312m
param *.uav[67].startY 1262m
param *.uav[67].startZ 540m
param *.uav[68].startX 2185m
param *.uav[68].startY 3026m
param *.uav[68].startZ 778m
param *.uav[69].startX 3537m
param *.uav[69].startY 965m
param *.uav[69].startZ 539m
param *.uav[70].startX 3537m
param *.uav[70].startY 965m
param *.uav[70].startZ 539m
param *.uav[71].startX 312m
param *.uav[71].startY 1262m
param *.uav[71].startZ 540m
param *.uav[72].startX 2185m
param *.uav[72].startY 3026m
param *.uav[72].startZ 778m
param *.uav[73].startX 3537m
param *.uav[73].startY 965m
param *.uav[73].startZ 539m
param *.uav[74].startX 312m
param *.uav[74].startY 1262m
param *.uav[74].startZ 540m
param *.uav[75].startX 2185m
param *.uav[75].startY 3026m
param *.uav[75].startZ 778m
param *.uav[76].startX 3537m
param *.uav[76].startY 965m
param *.uav[76].startZ 539m
param *.uav[77].startX 312m
param *.uav[77].startY 1262m
param *.uav[77].startZ 540m
param *.uav[78].startX 2185m
param *.uav[78].startY 3026m
param *.uav[78].startZ 778m
param *.uav[79].startX 3537m
param *.uav[79].startY 965m
param *.uav[79].startZ 539m
param *.uav[80].startX 3537m
param *.uav[80].startY 965m
param *.uav[80].startZ 539m
param *.uav[81].startX 312m
param *.uav[81].startY 1262m
param *.uav[81].startZ 540m
param *.uav[82].startX 2185m
param *.uav[82].startY 3026m
param *.uav[82].startZ 778m
param *.uav[83].startX 3537m
param *.uav[83].startY 965m
param *.uav[83].startZ 539m
param *.uav[84].startX 312m
param *.uav[84].startY 1262m
param *.uav[84].startZ 540m
param *.uav[85].startX 2185m
param *.uav[85].startY 3026m
param *.uav[85].startZ 778m
param *.uav[86].startX 3537m
param *.uav[86].startY 965m
param *.uav[86].startZ 539m
param *.uav[87].startX 312m
param *.uav[87].startY 1262m
param *.uav[87].startZ 540m
param *.uav[88].startX 2185m
param *.uav[88].startY 3026m
param *.uav[88].startZ 778m
param *.uav[89].startX 3537m
param *.uav[89].startY 965m
param *.uav[89].startZ 539m
param *.uav[90].startX 3537m
param *.uav[90].startY 965m
param *.uav[90].startZ 539m
param *.uav[91].startX 312m
param *.uav[91].startY 1262m
param *.uav[91].startZ 540m
param *.uav[92].startX 2185m
param *.uav[92].startY 3026m
param *.uav[92].startZ 778m
param *.uav[93].startX 3537m
param *.uav[93].startY 965m
param *.uav[93].startZ 539m
param *.uav[94].startX 312m
param *.uav[94].startY 1262m
param *.uav[94].startZ 540m
param *.uav[95].startX 2185m
param *.uav[95].startY 3026m
param *.uav[95].startZ 778m
param *.uav[96].startX 3537m
param *.uav[96].startY 965m
param *.uav[96].startZ 539m
param *.uav[97].startX 312m
param *.uav[97].startY 1262m
param *.uav[97].startZ 540m
param *.uav[98].startX 2185m
param *.uav[98].startY 3026m
param *.uav[98].startZ 778m
param *.uav[99].startX 3537m
param *.uav[99].startY 965m
param *.uav[99].startZ 539m
param *.osgEarthScene.scene "\"boston.earth\""
param *.playgroundLatitude 42.3558
param *.playgroundLongitude -71.0677
param *.playgroundWidth 400m
param *.playgroundHeight 200m
param *.channelController.connectionColor "\"#0000FF40\""
param *.channelController.showConnections false
param *.uav[*].modelURL "\"quadrocopter.small.obj.15.scale.0,0,90.rot\""
param *.uav[*].labelColor "\"#FF7C00CC\""
param *.uav[*].label2Color "\"#FF7C00EE\""
param *.uav[*].batteryCapacity 5200mAh
param *.uav[*].batteryRemaining uav[index].batteryCapacity
param *.uav[*].predictionQuantile 0.95
param *.uav[*].replacementMethod 2
param *.uav[*].weightedSumWeight 0.5
param *.cs[*].modelURL "\"chargingstation_v1.osgt.2.scale.0,0,0.rot.0,0,-15e-1.trans\""
param *.cs[*].spotsWaiting 999
param *.cs[*].spotsCharging 999
param *.cs[*].chargeEffectivenessPercentage 100
param *.cs[*].nonLinearPhaseStartPercentage 85
param *.cs[*].chargeCurrent 6.0A
param *.cs[*].prioritizeFastCharge true
param *.missionControl.replacementSearchMethod 0
param *.*.timeStep 9s

scalar OsgEarthNet.uav[0] utilizationSecMission 1521.2503051606
scalar OsgEarthNet.uav[0] utilizationSecMaintenance 480.20622259878
scalar OsgEarthNet.uav[0] utilizationSecCharge 6657.3717389936
scalar OsgEarthNet.uav[0] utilizationSecIdle 250541.17073325
scalar OsgEarthNet.uav[0] utilizationEnergyMission 7050.9631500244
scalar OsgEarthNet.uav[0] utilizationEnergyMaintenance 2285.2207984924
scalar OsgEarthNet.uav[0] utilizationEnergyCharge 9157.1635742188
scalar OsgEarthNet.uav[0] utilizationEnergyOverdrawMission 0
scalar OsgEarthNet.uav[0] utilizationEnergyOverdrawMaintenance 0
scalar OsgEarthNet.uav[0] utilizationCountMissions 2
scalar OsgEarthNet.uav[0] utilizationCountManeuversMission 24
scalar OsgEarthNet.uav[0] utilizationCountManeuversMaintenance 4
scalar OsgEarthNet.uav[0] utilizationCountChargeState 2
scalar OsgEarthNet.uav[0] utilizationCountOverdrawnAfterMission 0
scalar OsgEarthNet.uav[0] utilizationCountIdleState 2
scalar OsgEarthNet.uav[0] utilizationFail 0
scalar OsgEarthNet.uav[0] simulationTime 259200
scalar OsgEarthNet.uav[1] utilizationSecMission 655.55330183502
scalar OsgEarthNet.uav[1] utilizationSecMaintenance 334.5505930207
scalar OsgEarthNet.uav[1] utilizationSecCharge 3800
scalar OsgEarthNet.uav[1] utilizationSecIdle 254409.89510514
scalar OsgEarthNet.uav[1] utilizationEnergyMission 3148.9547119141
scalar OsgEarthNet.uav[1] utilizationEnergyMaintenance 1560.444316864
scalar OsgEarthNet.uav[1] utilizationEnergyCharge 4709.4018554688
scalar OsgEarthNet.uav[1] utilizationEnergyOverdrawMission 0
scalar OsgEarthNet.uav[1] utilizationEnergyOverdrawMaintenance 0
scalar OsgEarthNet.uav[1] utilizationCountMissions 1
scalar OsgEarthNet.uav[1] utilizationCountManeuversMission 10
scalar OsgEarthNet.uav[1] utilizationCountManeuversMaintenance 2
scalar OsgEarthNet.uav[1] utilizationCountChargeState 1
scalar OsgEarthNet.uav[1] utilizationCountOverdrawnAfterMission 0
scalar OsgEarthNet.uav[1] utilizationCountIdleState 2
scalar OsgEarthNet.uav[1] utilizationFail 0
scalar OsgEarthNet.uav[1] simulationTime 259200
scalar OsgEarthNet.uav[2] utilizationSecMission 3011.2393350151
scalar OsgEarthNet.uav[2] utilizationSecMaintenance 957.86402564285
scalar OsgEarthNet.uav[2] utilizationSecCharge 14927.539499356
scalar OsgEarthNet.uav[2] utilizationSecIdle 240303.35613999
scalar OsgEarthNet.uav[2] utilizationEnergyMission 14284.350921631
scalar OsgEarthNet.uav[2] utilizationEnergyMaintenance 4388.1421966553
scalar OsgEarthNet.uav[2] utilizationEnergyCharge 18672.498046875
scalar OsgEarthNet.uav[2] utilizationEnergyOverdrawMission 0
scalar OsgEarthNet.uav[2] utilizationEnergyOverdrawMaintenance 0
scalar OsgEarthNet.uav[2] utilizationCountMissions 4
scalar OsgEarthNet.uav[2] utilizationCountManeuversMission 45
scalar OsgEarthNet.uav[2] utilizationCountManeuversMaintenance 8
scalar OsgEarthNet.uav[2] utilizationCountChargeState 4
scalar OsgEarthNet.uav[2] utilizationCountOverdrawnAfterMission 0
scalar OsgEarthNet.uav[2] utilizationCountIdleState 4
scalar OsgEarthNet.uav[2] utilizationFail 0
scalar OsgEarthNet.uav[2] simulationTime 259200
scalar OsgEarthNet.uav[3] utilizationSecMission 2945.5078374751
scalar OsgEarthNet.uav[3] utilizationSecMaintenance 1093.8209851461
scalar OsgEarthNet.uav[3] utilizationSecCharge 14740
scalar OsgEarthNet.uav[3] utilizationSecIdle 240420.67017738
scalar OsgEarthNet.uav[3] utilizationEnergyMission 13269.763870239
scalar OsgEarthNet.uav[3] utilizationEnergyMaintenance 5129.2937583923
scalar OsgEarthNet.uav[3] utilizationEnergyCharge 18399.059082031
scalar OsgEarthNet.uav[3] utilizationEnergyOverdrawMission 0
scalar OsgEarthNet.uav[3] utilizationEnergyOverdrawMaintenance 0
scalar OsgEarthNet.uav[3] utilizationCountMissions 4
scalar OsgEarthNet.uav[3] utilizationCountManeuversMission 45
scalar OsgEarthNet.uav[3] utilizationCountManeuversMaintenance 8
scalar OsgEarthNet.uav[3] utilizationCountChargeState 4
scalar OsgEarthNet.uav[3] utilizationCountOverdrawnAfterMission 0
scalar OsgEarthNet.uav[3] utilizationCountIdleState 5
scalar OsgEarthNet.uav[3] utilizationFail 0
scalar OsgEarthNet.uav[3] simulationTime 259200
scalar OsgEarthNet.uav[4] utilizationSecMission 3906.6301097129
scalar OsgEarthNet.uav[4] utilizationSecMaintenance 1960.0839399212
scalar OsgEarthNet.uav[4] utilizationSecCharge 21930
scalar OsgEarthNet.uav[4] utilizationSecIdle 231403.28495037
scalar OsgEarthNet.uav[4] utilizationEnergyMission 18475.437042236
scalar OsgEarthNet.uav[4] utilizationEnergyMaintenance 9321.003742218
scalar OsgEarthNet.uav[4] utilizationEnergyCharge 27796.450195312
scalar OsgEarthNet.uav[4] utilizationEnergyOverdrawMission 0
scalar OsgEarthNet.uav[4] utilizationEnergyOverdrawMaintenance 0
scalar OsgEarthNet.uav[4] utilizationCountMissions 6
scalar OsgEarthNet.uav[4] utilizationCountManeuversMission 67
scalar OsgEarthNet.uav[4] utilizationCountManeuversMaintenance 12
scalar OsgEarthNet.uav[4] utilizationCountChargeState 6
scalar OsgEarthNet.uav[4] utilizationCountOverdrawnAfterMission 0
scalar OsgEarthNet.uav[4] utilizationCountIdleState 5
scalar OsgEarthNet.uav[4] utilizationFail 0
scalar OsgEarthNet.uav[4] simulationTime 259200
scalar OsgEarthNet.uav[5] utilizationSecMission 42790.13399066
scalar OsgEarthNet.uav[5] utilizationSecMaintenance 13297.037674788
scalar OsgEarthNet.uav[5] utilizationSecCharge 192409.36629178
scalar OsgEarthNet.uav[5] utilizationSecIdle 10703.461042776
scalar OsgEarthNet.uav[5] utilizationEnergyMission 197075.34841156
scalar OsgEarthNet.uav[5] utilizationEnergyMaintenance 60412.248371124
scalar OsgEarthNet.uav[5] utilizationEnergyCharge 254385.05151367
scalar OsgEarthNet.uav[5] utilizationEnergyOverdrawMission 0
scalar OsgEarthNet.uav[5] utilizationEnergyOverdrawMaintenance 0
scalar OsgEarthNet.uav[5] utilizationCountMissions 54
scalar OsgEarthNet.uav[5] utilizationCountManeuversMission 734
scalar OsgEarthNet.uav[5] utilizationCountManeuversMaintenance 108
scalar OsgEarthNet.uav[5] utilizationCountChargeState 54
scalar OsgEarthNet.uav[5] utilizationCountOverdrawnAfterMission 0
scalar OsgEarthNet.uav[5] utilizationCountIdleState 23
scalar OsgEarthNet.uav[5] utilizationFail 0
scalar OsgEarthNet.uav[5] simulationTime 259200
scalar OsgEarthNet.uav[6] utilizationSecMission 4589.1003286252
scalar OsgEarthNet.uav[6] utilizationSecMaintenance 1185.927769668
scalar OsgEarthNet.uav[6] utilizationSecCharge 18860
scalar OsgEarthNet.uav[6] utilizationSecIdle 234564.97090171
scalar OsgEarthNet.uav[6] utilizationEnergyMission 21688.191393123
scalar OsgEarthNet.uav[6] utilizationEnergyMaintenance 5920.6958885193
scalar OsgEarthNet.uav[6] utilizationEnergyCharge 23688.811523438
scalar OsgEarthNet.uav[6] utilizationEnergyOverdrawMission 0
scalar OsgEarthNet.uav[6] utilizationEnergyOverdrawMaintenance 0
scalar OsgEarthNet.uav[6] utilizationCountMissions 5
scalar OsgEarthNet.uav[6] utilizationCountManeuversMission 72
scalar OsgEarthNet.uav[6] utilizationCountManeuversMaintenance 11
scalar OsgEarthNet.uav[6] utilizationCountChargeState 5
scalar OsgEarthNet.uav[6] utilizationCountOverdrawnAfterMission 0
scalar OsgEarthNet.uav[6] utilizationCountIdleState 6
scalar OsgEarthNet.uav[6] utilizationFail 0
scalar OsgEarthNet.uav[6] simulationTime 259200
scalar OsgEarthNet.uav[7] utilizationSecMission 655.55330183502
scalar OsgEarthNet.uav[7] utilizationSecMaintenance 334.5505930207
scalar OsgEarthNet.uav[7] utilizationSecCharge 3750
scalar OsgEarthNet.uav[7] utilizationSecIdle 254459.89510514
scalar OsgEarthNet.uav[7] utilizationEnergyMission 3010.2706298828
scalar OsgEarthNet.uav[7] utilizationEnergyMaintenance 1686.9702262878
scalar OsgEarthNet.uav[7] utilizationEnergyCharge 4697.2392578125
scalar OsgEarthNet.uav[7] utilizationEnergyOverdrawMission 0
scalar OsgEarthNet.uav[7] utilizationEnergyOverdrawMaintenance 0
scalar OsgEarthNet.uav[7] utilizationCountMissions 1
scalar OsgEarthNet.uav[7] utilizationCountManeuversMission 10
scalar OsgEarthNet.uav[7] utilizationCountManeuversMaintenance 2
scalar OsgEarthNet.uav[7] utilizationCountChargeState 1
scalar OsgEarthNet.uav[7] utilizationCountOverdrawnAfterMission 0
scalar OsgEarthNet.uav[7] utilizationCountIdleState 2
scalar OsgEarthNet.uav[7] utilizationFail 0
scalar OsgEarthNet.uav[7] simulationTime 259200
scalar OsgEarthNet.uav[8] utilizationSecMission 8911.463784395
scalar OsgEarthNet.uav[8] utilizationSecMaintenance 3153.5629955456
scalar OsgEarthNet.uav[8] utilizationSecCharge 44940
scalar OsgEarthNet.uav[8] utilizationSecIdle 202194.97222006
scalar OsgEarthNet.uav[8] utilizationEnergyMission 41284.87361145
scalar OsgEarthNet.uav[8] utilizationEnergyMaintenance 14993.944412231
scalar OsgEarthNet.uav[8] utilizationEnergyCharge 56349.194824219
scalar OsgEarthNet.uav[8] utilizationEnergyOverdrawMission 0
scalar OsgEarthNet.uav[8] utilizationEnergyOverdrawMaintenance 0
scalar OsgEarthNet.uav[8] utilizationCountMissions 12
scalar OsgEarthNet.uav[8] utilizationCountManeuversMission 137
scalar OsgEarthNet.uav[8] utilizationCountManeuversMaintenance 24
scalar OsgEarthNet.uav[8] utilizationCountChargeState 12
scalar OsgEarthNet.uav[8] utilizationCountOverdrawnAfterMission 0
scalar OsgEarthNet.uav[8] utilizationCountIdleState 13
scalar OsgEarthNet.uav[8] utilizationFail 0
scalar OsgEarthNet.uav[8] simulationTime 259200
scalar OsgEarthNet.uav[9] utilizationSecMission 8325.194977975
scalar OsgEarthNet.uav[9] utilizationSecMaintenance 2635.4524624198
scalar OsgEarthNet.uav[9] utilizationSecCharge 40940
scalar OsgEarthNet.uav[9] utilizationSecIdle 207299.35155961
scalar OsgEarthNet.uav[9] utilizationEnergyMission 38014.781143189
scalar OsgEarthNet.uav[9] utilizationEnergyMaintenance 13011.632095337
scalar OsgEarthNet.uav[9] utilizationEnergyCharge 51026.407714844
scalar OsgEarthNet.uav[9] utilizationEnergyOverdrawMission 0
scalar OsgEarthNet.uav[9] utilizationEnergyOverdrawMaintenance 0
scalar OsgEarthNet.uav[9] utilizationCountMissions 11
scalar OsgEarthNet.uav[9] utilizationCountManeuversMission 128
scalar OsgEarthNet.uav[9] utilizationCountManeuversMaintenance 22
scalar OsgEarthNet.uav[9] utilizationCountChargeState 11
scalar OsgEarthNet.uav[9] utilizationCountOverdrawnAfterMission 0
scalar OsgEarthNet.uav[9] utilizationCountIdleState 12
scalar OsgEarthNet.uav[9] utilizationFail 0
scalar OsgEarthNet.uav[9] simulationTime 259200
scalar OsgEarthNet.uav[10] utilizationSecMission 4499.1688630048
scalar OsgEarthNet.uav[10] utilizationSecMaintenance 2595.0845488421
scalar OsgEarthNet.uav[10] utilizationSecCharge 26250
scalar OsgEarthNet.uav[10] utilizationSecIdle 225855.74558815
scalar OsgEarthNet.uav[10] utilizationEnergyMission 20652.110641479
scalar OsgEarthNet.uav[10] utilizationEnergyMaintenance 12404.490447998
scalar OsgEarthNet.uav[10] utilizationEnergyCharge 33056.607421875
scalar OsgEarthNet.uav[10] utilizationEnergyOverdrawMission 0
scalar OsgEarthNet.uav[10] utilizationEnergyOverdrawMaintenance 0
scalar OsgEarthNet.uav[10] utilizationCountMissions 7
scalar OsgEarthNet.uav[10] utilizationCountManeuversMission 75
scalar OsgEarthNet.uav[10] utilizationCountManeuversMaintenance 14
scalar OsgEarthNet.uav[10] utilizationCountChargeState 7
scalar OsgEarthNet.uav[10] utilizationCountOverdrawnAfterMission 0
scalar OsgEarthNet.uav[10] utilizationCountIdleState 7
scalar OsgEarthNet.uav[10] utilizationFail 0
scalar OsgEarthNet.uav[10] simulationTime 259200
scalar OsgEarthNet.uav[11] utilizationSecMission 5466.7155649715
scalar OsgEarthNet.uav[11] utilizationSecMaintenance 2411.3121014147
scalar OsgEarthNet.uav[11] utilizationSecCharge 29850
scalar OsgEarthNet.uav[11] utilizationSecIdle 221471.97133361
scalar OsgEarthNet.uav[11] utilizationEnergyMission 25741.869300842
scalar OsgEarthNet.uav[11] utilizationEnergyMaintenance 11480.559856415
scalar OsgEarthNet.uav[11] utilizationEnergyCharge 37222.426269531
scalar OsgEarthNet.uav[11] utilizationEnergyOverdrawMission 0
scalar OsgEarthNet.uav[11] utilizationEnergyOverdrawMaintenance 0
scalar OsgEarthNet.uav[11] utilizationCountMissions 8
scalar OsgEarthNet.uav[11] utilizationCountManeuversMission 86
scalar OsgEarthNet.uav[11] utilizationCountManeuversMaintenance 16
scalar OsgEarthNet.uav[11] utilizationCountChargeState 8
scalar OsgEarthNet.uav[11] utilizationCountOverdrawnAfterMission 0
scalar OsgEarthNet.uav[11] utilizationCountIdleState 9
scalar OsgEarthNet.uav[11] utilizationFail 0
scalar OsgEarthNet.uav[11] simulationTime 259200
scalar OsgEarthNet.uav[12] utilizationSecMission 8916.2818206617
scalar OsgEarthNet.uav[12] utilizationSecMaintenance 3014.7439294449
scalar OsgEarthNet.uav[12] utilizationSecCharge 43132.731414273
scalar OsgEarthNet.uav[12] utilizationSecIdle 204136.24183562
scalar OsgEarthNet.uav[12] utilizationEnergyMission 41501.504577637
scalar OsgEarthNet.uav[12] utilizationEnergyMaintenance 14429.421676636
scalar OsgEarthNet.uav[12] utilizationEnergyCharge 54894.650634766
scalar OsgEarthNet.uav[12] utilizationEnergyOverdrawMission 0
scalar OsgEarthNet.uav[12] utilizationEnergyOverdrawMaintenance 0
scalar OsgEarthNet.uav[12] utilizationCountMissions 12
scalar OsgEarthNet.uav[12] utilizationCountManeuversMission 135
scalar OsgEarthNet.uav[12] utilizationCountManeuversMaintenance 24
scalar OsgEarthNet.uav[12] utilizationCountChargeState 12
scalar OsgEarthNet.uav[12] utilizationCountOverdrawnAfterMission 0
scalar OsgEarthNet.uav[12] utilizationCountIdleState 12
scalar OsgEarthNet.uav[12] utilizationFail 0
scalar OsgEarthNet.uav[12] simulationTime 259200
scalar OsgEarthNet.uav[13] utilizationSecMission 11326.013887888
scalar OsgEarthNet.uav[13] utilizationSecMaintenance 3228.2548200566
scalar OsgEarthNet.uav[13] utilizationSecCharge 55220
scalar OsgEarthNet.uav[13] utilizationSecIdle 189425.73029206
scalar OsgEarthNet.uav[13] utilizationEnergyMission 53178.4323349
scalar OsgEarthNet.uav[13] utilizationEnergyMaintenance 15686.614490509
scalar OsgEarthNet.uav[13] utilizationEnergyCharge 68865.038085938
scalar OsgEarthNet.uav[13] utilizationEnergyOverdrawMission 0
scalar OsgEarthNet.uav[13] utilizationEnergyOverdrawMaintenance 0
scalar OsgEarthNet.uav[13] utilizationCountMissions 15
scalar OsgEarthNet.uav[13] utilizationCountManeuversMission 172
scalar OsgEarthNet.uav[13] utilizationCountManeuversMaintenance 30
scalar OsgEarthNet.uav[13] utilizationCountChargeState 15
scalar OsgEarthNet.uav[13] utilizationCountOverdrawnAfterMission 0
scalar OsgEarthNet.uav[13] utilizationCountIdleState 16
scalar OsgEarthNet.uav[13] utilizationFail 0
scalar OsgEarthNet.uav[13] simulationTime 259200
scalar OsgEarthNet.uav[14] utilizationSecMission 2141.9668622314
scalar OsgEarthNet.uav[14] utilizationSecMaintenance 916.96651144049
scalar OsgEarthNet.uav[14] utilizationSecCharge 11410
scalar OsgEarthNet.uav[14] utilizationSecIdle 244731.06562633
scalar OsgEarthNet.uav[14] utilizationEnergyMission 9682.0166320801
scalar OsgEarthNet.uav[14] utilizationEnergyMaintenance 4679.5506439209
scalar OsgEarthNet.uav[14] utilizationEnergyCharge 14361.5625
scalar OsgEarthNet.uav[14] utilizationEnergyOverdrawMission 0
scalar OsgEarthNet.uav[14] utilizationEnergyOverdrawMaintenance 0
scalar OsgEarthNet.uav[14] utilizationCountMissions 3
scalar OsgEarthNet.uav[14] utilizationCountManeuversMission 34
scalar OsgEarthNet.uav[14] utilizationCountManeuversMaintenance 6
scalar OsgEarthNet.uav[14] utilizationCountChargeState 3
scalar OsgEarthNet.uav[14] utilizationCountOverdrawnAfterMission 0
scalar OsgEarthNet.uav[14] utilizationCountIdleState 4
scalar OsgEarthNet.uav[14] utilizationFail 0
scalar OsgEarthNet.uav[14] simulationTime 259200
scalar OsgEarthNet.uav[15] utilizationSecMission 4246.7258321254
scalar OsgEarthNet.uav[15] utilizationSecMaintenance 1711.0340945918
scalar OsgEarthNet.uav[15] utilizationSecCharge 22280
scalar OsgEarthNet.uav[15] utilizationSecIdle 230962.23907328
scalar OsgEarthNet.uav[15] utilizationEnergyMission 19684.362670898
scalar OsgEarthNet.uav[15] utilizationEnergyMaintenance 8126.8837356567
scalar OsgEarthNet.uav[15] utilizationEnergyCharge 27811.244628906
scalar OsgEarthNet.uav[15] utilizationEnergyOverdrawMission 0
scalar OsgEarthNet.uav[15] utilizationEnergyOverdrawMaintenance 0
scalar OsgEarthNet.uav[15] utilizationCountMissions 6
scalar OsgEarthNet.uav[15] utilizationCountManeuversMission 64
scalar OsgEarthNet.uav[15] utilizationCountManeuversMaintenance 12
scalar OsgEarthNet.uav[15] utilizationCountChargeState 6
scalar OsgEarthNet.uav[15] utilizationCountOverdrawnAfterMission 0
scalar OsgEarthNet.uav[15] utilizationCountIdleState 7
scalar OsgEarthNet.uav[15] utilizationFail 0
scalar OsgEarthNet.uav[15] simulationTime 259200
scalar OsgEarthNet.uav[16] utilizationSecMission 9319.9356076024
scalar OsgEarthNet.uav[16] utilizationSecMaintenance 3792.3951410232
scalar OsgEarthNet.uav[16] utilizationSecCharge 48820
scalar OsgEarthNet.uav[16] utilizationSecIdle 197267.66825137
scalar OsgEarthNet.uav[16] utilizationEnergyMission 43228.095184326
scalar OsgEarthNet.uav[16] utilizationEnergyMaintenance 18099.504261017
scalar OsgEarthNet.uav[16] utilizationEnergyCharge 61033.413085938
scalar OsgEarthNet.uav[16] utilizationEnergyOverdrawMission 0
scalar OsgEarthNet.uav[16] utilizationEnergyOverdrawMaintenance 0
scalar OsgEarthNet.uav[16] utilizationCountMissions 13
scalar OsgEarthNet.uav[16] utilizationCountManeuversMission 146
scalar OsgEarthNet.uav[16] utilizationCountManeuversMaintenance 26
scalar OsgEarthNet.uav[16] utilizationCountChargeState 13
scalar OsgEarthNet.uav[16] utilizationCountOverdrawnAfterMission 0
scalar OsgEarthNet.uav[16] utilizationCountIdleState 14
scalar OsgEarthNet.uav[16] utilizationFail 0
scalar OsgEarthNet.uav[16] simulationTime 259200
scalar OsgEarthNet.uav[17] utilizationSecMission 4090.2707948915
scalar OsgEarthNet.uav[17] utilizationSecMaintenance 1841.6730594854
scalar OsgEarthNet.uav[17] utilizationSecCharge 22280
scalar OsgEarthNet.uav[17] utilizationSecIdle 230988.05514562
scalar OsgEarthNet.uav[17] utilizationEnergyMission 18864.30632782
scalar OsgEarthNet.uav[17] utilizationEnergyMaintenance 8813.6953811646
scalar OsgEarthNet.uav[17] utilizationEnergyCharge 27678.00390625
scalar OsgEarthNet.uav[17] utilizationEnergyOverdrawMission 0
scalar OsgEarthNet.uav[17] utilizationEnergyOverdrawMaintenance 0
scalar OsgEarthNet.uav[17] utilizationCountMissions 6
scalar OsgEarthNet.uav[17] utilizationCountManeuversMission 63
scalar OsgEarthNet.uav[17] utilizationCountManeuversMaintenance 12
scalar OsgEarthNet.uav[17] utilizationCountChargeState 6
scalar OsgEarthNet.uav[17] utilizationCountOverdrawnAfterMission 0
scalar OsgEarthNet.uav[17] utilizationCountIdleState 7
scalar OsgEarthNet.uav[17] utilizationFail 0
scalar OsgEarthNet.uav[17] simulationTime 259200
scalar OsgEarthNet.uav[18] utilizationSecMission 42506.369298307
scalar OsgEarthNet.uav[18] utilizationSecMaintenance 13502.403558347
scalar OsgEarthNet.uav[18] utilizationSecCharge 194822.37798135
scalar OsgEarthNet.uav[18] utilizationSecIdle 8368.8481619971
scalar OsgEarthNet.uav[18] utilizationEnergyMission 197548.90317535
scalar OsgEarthNet.uav[18] utilizationEnergyMaintenance 62728.946289062
scalar OsgEarthNet.uav[18] utilizationEnergyCharge 255664.1484375
scalar OsgEarthNet.uav[18] utilizationEnergyOverdrawMission 0
scalar OsgEarthNet.uav[18] utilizationEnergyOverdrawMaintenance 0
scalar OsgEarthNet.uav[18] utilizationCountMissions 55
scalar OsgEarthNet.uav[18] utilizationCountManeuversMission 735
scalar OsgEarthNet.uav[18] utilizationCountManeuversMaintenance 110
scalar OsgEarthNet.uav[18] utilizationCountChargeState 55
scalar OsgEarthNet.uav[18] utilizationCountOverdrawnAfterMission 0
scalar OsgEarthNet.uav[18] utilizationCountIdleState 24
scalar OsgEarthNet.uav[18] utilizationFail 0
scalar OsgEarthNet.uav[18] simulationTime 259200
scalar OsgEarthNet.uav[19] utilizationSecMission 12882.069484654
scalar OsgEarthNet.uav[19] utilizationSecMaintenance 3968.2353907415
scalar OsgEarthNet.uav[19] utilizationSecCharge 62860
scalar OsgEarthNet.uav[19] utilizationSecIdle 179489.6941246
scalar OsgEarthNet.uav[19] utilizationEnergyMission 58949.589599609
scalar OsgEarthNet.uav[19] utilizationEnergyMaintenance 19463.205211639
scalar OsgEarthNet.uav[19] utilizationEnergyCharge 78327.51171875
scalar OsgEarthNet.uav[19] utilizationEnergyOverdrawMission 0
scalar OsgEarthNet.uav[19] utilizationEnergyOverdrawMaintenance 0
scalar OsgEarthNet.uav[19] utilizationCountMissions 17
scalar OsgEarthNet.uav[19] utilizationCountManeuversMission 198
scalar OsgEarthNet.uav[19] utilizationCountManeuversMaintenance 34
scalar OsgEarthNet.uav[19] utilizationCountChargeState 17
scalar OsgEarthNet.uav[19] utilizationCountOverdrawnAfterMission 0
scalar OsgEarthNet.uav[19] utilizationCountIdleState 18
scalar OsgEarthNet.uav[19] utilizationFail 0
scalar OsgEarthNet.uav[19] simulationTime 259200
scalar OsgEarthNet.uav[20] utilizationSecMission 11147.663277786
scalar OsgEarthNet.uav[20] utilizationSecMaintenance 3736.3361919962
scalar OsgEarthNet.uav[20] utilizationSecCharge 55700
scalar OsgEarthNet.uav[20] utilizationSecIdle 188615.99953022
scalar OsgEarthNet.uav[20] utilizationEnergyMission 51381.409683228
scalar OsgEarthNet.uav[20] utilizationEnergyMaintenance 18309.251758575
scalar OsgEarthNet.uav[20] utilizationEnergyCharge 69488.510253906
scalar OsgEarthNet.uav[20] utilizationEnergyOverdrawMission 0
scalar OsgEarthNet.uav[20] utilizationEnergyOverdrawMaintenance 0
scalar OsgEarthNet.uav[20] utilizationCountMissions 15
scalar OsgEarthNet.uav[20] utilizationCountManeuversMission 171
scalar OsgEarthNet.uav[20] utilizationCountManeuversMaintenance 30
scalar OsgEarthNet.uav[20] utilizationCountChargeState 15
scalar OsgEarthNet.uav[20] utilizationCountOverdrawnAfterMission 0
scalar OsgEarthNet.uav[20] utilizationCountIdleState 16
scalar OsgEarthNet.uav[20] utilizationFail 0
scalar OsgEarthNet.uav[20] simulationTime 259200
scalar OsgEarthNet.uav[21] utilizationSecMission 4832.5598704205
scalar OsgEarthNet.uav[21] utilizationSecMaintenance 2145.5132288169
scalar OsgEarthNet.uav[21] utilizationSecCharge 25880
scalar OsgEarthNet.uav[21] utilizationSecIdle 226341.92590076
scalar OsgEarthNet.uav[21] utilizationEnergyMission 22397.155227661
scalar OsgEarthNet.uav[21] utilizationEnergyMaintenance 10388.81149292
scalar OsgEarthNet.uav[21] utilizationEnergyCharge 32785.953613281
scalar OsgEarthNet.uav[21] utilizationEnergyOverdrawMission 0
scalar OsgEarthNet.uav[21] utilizationEnergyOverdrawMaintenance 0
scalar OsgEarthNet.uav[21] utilizationCountMissions 7
scalar OsgEarthNet.uav[21] utilizationCountManeuversMission 82
scalar OsgEarthNet.uav[21] utilizationCountManeuversMaintenance 14
scalar OsgEarthNet.uav[21] utilizationCountChargeState 7
scalar OsgEarthNet.uav[21] utilizationCountOverdrawnAfterMission 0
scalar OsgEarthNet.uav[21] utilizationCountIdleState 6
scalar OsgEarthNet.uav[21] utilizationFail 0
scalar OsgEarthNet.uav[21] simulationTime 259200
scalar OsgEarthNet.uav[22] utilizationSecMission 4544.4611565767
scalar OsgEarthNet.uav[22] utilizationSecMaintenance 2642.332936278
scalar OsgEarthNet.uav[22] utilizationSecCharge 25960
scalar OsgEarthNet.uav[22] utilizationSecIdle 226053.20490715
scalar OsgEarthNet.uav[22] utilizationEnergyMission 20710.173171997
scalar OsgEarthNet.uav[22] utilizationEnergyMaintenance 12237.898365021
scalar OsgEarthNet.uav[22] utilizationEnergyCharge 32882.547851562
scalar OsgEarthNet.uav[22] utilizationEnergyOverdrawMission 0
scalar OsgEarthNet.uav[22] utilizationEnergyOverdrawMaintenance 0
scalar OsgEarthNet.uav[22] utilizationCountMissions 7
scalar OsgEarthNet.uav[22] utilizationCountManeuversMission 75
scalar OsgEarthNet.uav[22] utilizationCountManeuversMaintenance 14
scalar OsgEarthNet.uav[22] utilizationCountChargeState 7
scalar OsgEarthNet.uav[22] utilizationCountOverdrawnAfterMission 0
scalar OsgEarthNet.uav[22] utilizationCountIdleState 7
scalar OsgEarthNet.uav[22] utilizationFail 0
scalar OsgEarthNet.uav[22] simulationTime 259200
scalar OsgEarthNet.uav[23] utilizationSecMission 7173.7341665993
scalar OsgEarthNet.uav[23] utilizationSecMaintenance 2832.253689683
scalar OsgEarthNet.uav[23] utilizationSecCharge 37020
scalar OsgEarthNet.uav[23] utilizationSecIdle 212174.01114372
scalar OsgEarthNet.uav[23] utilizationEnergyMission 32745.293960571
scalar OsgEarthNet.uav[23] utilizationEnergyMaintenance 13559.054141998
scalar OsgEarthNet.uav[23] utilizationEnergyCharge 46304.344726562
scalar OsgEarthNet.uav[23] utilizationEnergyOverdrawMission 0
scalar OsgEarthNet.uav[23] utilizationEnergyOverdrawMaintenance 0
scalar OsgEarthNet.uav[23] utilizationCountMissions 10
scalar OsgEarthNet.uav[23] utilizationCountManeuversMission 109
scalar OsgEarthNet.uav[23] utilizationCountManeuversMaintenance 20
scalar OsgEarthNet.uav[23] utilizationCountChargeState 10
scalar OsgEarthNet.uav[23] utilizationCountOverdrawnAfterMission 0
scalar OsgEarthNet.uav[23] utilizationCountIdleState 11
scalar OsgEarthNet.uav[23] utilizationFail 0
scalar OsgEarthNet.uav[23] simulationTime 259200
scalar OsgEarthNet.uav[24] utilizationSecMission 1311.10660367
scalar OsgEarthNet.uav[24] utilizationSecMaintenance 669.39310336273
scalar OsgEarthNet.uav[24] utilizationSecCharge 7490
scalar OsgEarthNet.uav[24] utilizationSecIdle 249729.49929297
scalar OsgEarthNet.uav[24] utilizationEnergyMission 5911.0743255615
scalar OsgEarthNet.uav[24] utilizationEnergyMaintenance 3448.1770858765
scalar OsgEarthNet.uav[24] utilizationEnergyCharge 9359.2563476562
scalar OsgEarthNet.uav[24] utilizationEnergyOverdrawMission 0
scalar OsgEarthNet.uav[24] utilizationEnergyOverdrawMaintenance 0
scalar OsgEarthNet.uav[24] utilizationCountMissions 2
scalar OsgEarthNet.uav[24] utilizationCountManeuversMission 20
scalar OsgEarthNet.uav[24] utilizationCountManeuversMaintenance 4
scalar OsgEarthNet.uav[24] utilizationCountChargeState 2
scalar OsgEarthNet.uav[24] utilizationCountOverdrawnAfterMission 0
scalar OsgEarthNet.uav[24] utilizationCountIdleState 3
scalar OsgEarthNet.uav[24] utilizationFail 0
scalar OsgEarthNet.uav[24] simulationTime 259200
scalar OsgEarthNet.uav[25] utilizationSecMission 42799.25873774
scalar OsgEarthNet.uav[25] utilizationSecMaintenance 13553.607246329
scalar OsgEarthNet.uav[25] utilizationSecCharge 195811.10974573
scalar OsgEarthNet.uav[25] utilizationSecIdle 7036.0232702045
scalar OsgEarthNet.uav[25] utilizationEnergyMission 199527.9108429
scalar OsgEarthNet.uav[25] utilizationEnergyMaintenance 63718.554611206
scalar OsgEarthNet.uav[25] utilizationEnergyCharge 261184.7043457
scalar OsgEarthNet.uav[25] utilizationEnergyOverdrawMission 0
scalar OsgEarthNet.uav[25] utilizationEnergyOverdrawMaintenance 0
scalar OsgEarthNet.uav[25] utilizationCountMissions 55
scalar OsgEarthNet.uav[25] utilizationCountManeuversMission 740
scalar OsgEarthNet.uav[25] utilizationCountManeuversMaintenance 110
scalar OsgEarthNet.uav[25] utilizationCountChargeState 55
scalar OsgEarthNet.uav[25] utilizationCountOverdrawnAfterMission 0
scalar OsgEarthNet.uav[25] utilizationCountIdleState 21
scalar OsgEarthNet.uav[25] utilizationFail 0
scalar OsgEarthNet.uav[25] simulationTime 259200
scalar OsgEarthNet.uav[26] utilizationSecMission 4267.5666823294
scalar OsgEarthNet.uav[26] utilizationSecMaintenance 1587.6990643022
scalar OsgEarthNet.uav[26] utilizationSecCharge 22060
scalar OsgEarthNet.uav[26] utilizationSecIdle 231284.73325337
scalar OsgEarthNet.uav[26] utilizationEnergyMission 19689.43346405
scalar OsgEarthNet.uav[26] utilizationEnergyMaintenance 7733.5163040161
scalar OsgEarthNet.uav[26] utilizationEnergyCharge 27422.950195312
scalar OsgEarthNet.uav[26] utilizationEnergyOverdrawMission 0
scalar OsgEarthNet.uav[26] utilizationEnergyOverdrawMaintenance 0
scalar OsgEarthNet.uav[26] utilizationCountMissions 6
scalar OsgEarthNet.uav[26] utilizationCountManeuversMission 66
scalar OsgEarthNet.uav[26] utilizationCountManeuversMaintenance 12
scalar OsgEarthNet.uav[26] utilizationCountChargeState 6
scalar OsgEarthNet.uav[26] utilizationCountOverdrawnAfterMission 0
scalar OsgEarthNet.uav[26] utilizationCountIdleState 7
scalar OsgEarthNet.uav[26] utilizationFail 0
scalar OsgEarthNet.uav[26] simulationTime 259200
scalar OsgEarthNet.uav[27] utilizationSecMission 7372.050528633
scalar OsgEarthNet.uav[27] utilizationSecMaintenance 3794.8809497494
scalar OsgEarthNet.uav[27] utilizationSecCharge 41780
scalar OsgEarthNet.uav[27] utilizationSecIdle 206253.06752162
scalar OsgEarthNet.uav[27] utilizationEnergyMission 34898.239799499
scalar OsgEarthNet.uav[27] utilizationEnergyMaintenance 18162.994693756
scalar OsgEarthNet.uav[27] utilizationEnergyCharge 53061.244628906
scalar OsgEarthNet.uav[27] utilizationEnergyOverdrawMission 0
scalar OsgEarthNet.uav[27] utilizationEnergyOverdrawMaintenance 0
scalar OsgEarthNet.uav[27] utilizationCountMissions 11
scalar OsgEarthNet.uav[27] utilizationCountManeuversMission 120
scalar OsgEarthNet.uav[27] utilizationCountManeuversMaintenance 21
scalar OsgEarthNet.uav[27] utilizationCountChargeState 11
scalar OsgEarthNet.uav[27] utilizationCountOverdrawnAfterMission 0
scalar OsgEarthNet.uav[27] utilizationCountIdleState 11
scalar OsgEarthNet.uav[27] utilizationFail 0
scalar OsgEarthNet.uav[27] simulationTime 259200
scalar OsgEarthNet.uav[28] utilizationSecMission 15256.499136329
scalar OsgEarthNet.uav[28] utilizationSecMaintenance 4656.4400578073
scalar OsgEarthNet.uav[28] utilizationSecCharge 73073.861427452
scalar OsgEarthNet.uav[28] utilizationSecIdle 166213.19837841
scalar OsgEarthNet.uav[28] utilizationEnergyMission 71261.007225037
scalar OsgEarthNet.uav[28] utilizationEnergyMaintenance 22398.624202728
scalar OsgEarthNet.uav[28] utilizationEnergyCharge 92309.07421875
scalar OsgEarthNet.uav[28] utilizationEnergyOverdrawMission 0
scalar OsgEarthNet.uav[28] utilizationEnergyOverdrawMaintenance 0
scalar OsgEarthNet.uav[28] utilizationCountMissions 20
scalar OsgEarthNet.uav[28] utilizationCountManeuversMission 231
scalar OsgEarthNet.uav[28] utilizationCountManeuversMaintenance 40
scalar OsgEarthNet.uav[28] utilizationCountChargeState 20
scalar OsgEarthNet.uav[28] utilizationCountOverdrawnAfterMission 0
scalar OsgEarthNet.uav[28] utilizationCountIdleState 20
scalar OsgEarthNet.uav[28] utilizationFail 0
scalar OsgEarthNet.uav[28] simulationTime 259200
scalar OsgEarthNet.uav[29] utilizationSecMission 10122.664481896
scalar OsgEarthNet.uav[29] utilizationSecMaintenance 3828.0512197288
scalar OsgEarthNet.uav[29] utilizationSecCharge 51870
scalar OsgEarthNet.uav[29] utilizationSecIdle 193379.28329837
scalar OsgEarthNet.uav[29] utilizationEnergyMission 45990.876419067
scalar OsgEarthNet.uav[29] utilizationEnergyMaintenance 18611.939655304
scalar OsgEarthNet.uav[29] utilizationEnergyCharge 64602.804199219
scalar OsgEarthNet.uav[29] utilizationEnergyOverdrawMission 0
scalar OsgEarthNet.uav[29] utilizationEnergyOverdrawMaintenance 0
scalar OsgEarthNet.uav[29] utilizationCountMissions 14
scalar OsgEarthNet.uav[29] utilizationCountManeuversMission 156
scalar OsgEarthNet.uav[29] utilizationCountManeuversMaintenance 28
scalar OsgEarthNet.uav[29] utilizationCountChargeState 14
scalar OsgEarthNet.uav[29] utilizationCountOverdrawnAfterMission 0
scalar OsgEarthNet.uav[29] utilizationCountIdleState 15
scalar OsgEarthNet.uav[29] utilizationFail 0
scalar OsgEarthNet.uav[29] simulationTime 259200
scalar OsgEarthNet.uav[30] utilizationSecMission 6590.788771107
scalar OsgEarthNet.uav[30] utilizationSecMaintenance 2473.4613246879
scalar OsgEarthNet.uav[30] utilizationSecCharge 33100
scalar OsgEarthNet.uav[30] utilizationSecIdle 217035.74890421
scalar OsgEarthNet.uav[30] utilizationEnergyMission 29736.367195129
scalar OsgEarthNet.uav[30] utilizationEnergyMaintenance 11720.775066376
scalar OsgEarthNet.uav[30] utilizationEnergyCharge 41282.251464844
scalar OsgEarthNet.uav[30] utilizationEnergyOverdrawMission 0
scalar OsgEarthNet.uav[30] utilizationEnergyOverdrawMaintenance 0
scalar OsgEarthNet.uav[30] utilizationCountMissions 9
scalar OsgEarthNet.uav[30] utilizationCountManeuversMission 101
scalar OsgEarthNet.uav[30] utilizationCountManeuversMaintenance 18
scalar OsgEarthNet.uav[30] utilizationCountChargeState 9
scalar OsgEarthNet.uav[30] utilizationCountOverdrawnAfterMission 0
scalar OsgEarthNet.uav[30] utilizationCountIdleState 10
scalar OsgEarthNet.uav[30] utilizationFail 0
scalar OsgEarthNet.uav[30] simulationTime 259200
scalar OsgEarthNet.uav[31] utilizationSecMission 14902.154698877
scalar OsgEarthNet.uav[31] utilizationSecMaintenance 4910.6693810329
scalar OsgEarthNet.uav[31] utilizationSecCharge 73420
scalar OsgEarthNet.uav[31] utilizationSecIdle 165967.17492009
scalar OsgEarthNet.uav[31] utilizationEnergyMission 67414.443450928
scalar OsgEarthNet.uav[31] utilizationEnergyMaintenance 23604.15139389
scalar OsgEarthNet.uav[31] utilizationEnergyCharge 91101.651855469
scalar OsgEarthNet.uav[31] utilizationEnergyOverdrawMission 0
scalar OsgEarthNet.uav[31] utilizationEnergyOverdrawMaintenance 0
scalar OsgEarthNet.uav[31] utilizationCountMissions 20
scalar OsgEarthNet.uav[31] utilizationCountManeuversMission 231
scalar OsgEarthNet.uav[31] utilizationCountManeuversMaintenance 40
scalar OsgEarthNet.uav[31] utilizationCountChargeState 20
scalar OsgEarthNet.uav[31] utilizationCountOverdrawnAfterMission 0
scalar OsgEarthNet.uav[31] utilizationCountIdleState 21
scalar OsgEarthNet.uav[31] utilizationFail 0
scalar OsgEarthNet.uav[31] simulationTime 259200
scalar OsgEarthNet.uav[32] utilizationSecMission 42183.798322156
scalar OsgEarthNet.uav[32] utilizationSecMaintenance 13524.747719126
scalar OsgEarthNet.uav[32] utilizationSecCharge 193530
scalar OsgEarthNet.uav[32] utilizationSecIdle 9961.4529587171
scalar OsgEarthNet.uav[32] utilizationEnergyMission 195748.35204617
scalar OsgEarthNet.uav[32] utilizationEnergyMaintenance 62026.48015213
scalar OsgEarthNet.uav[32] utilizationEnergyCharge 255417.39404297
scalar OsgEarthNet.uav[32] utilizationEnergyOverdrawMission 0
scalar OsgEarthNet.uav[32] utilizationEnergyOverdrawMaintenance 0
scalar OsgEarthNet.uav[32] utilizationCountMissions 54
scalar OsgEarthNet.uav[32] utilizationCountManeuversMission 730
scalar OsgEarthNet.uav[32] utilizationCountManeuversMaintenance 109
scalar OsgEarthNet.uav[32] utilizationCountChargeState 54
scalar OsgEarthNet.uav[32] utilizationCountOverdrawnAfterMission 0
scalar OsgEarthNet.uav[32] utilizationCountIdleState 23
scalar OsgEarthNet.uav[32] utilizationFail 0
scalar OsgEarthNet.uav[32] simulationTime 259200
scalar OsgEarthNet.uav[33] utilizationSecMission 6162.6541924689
scalar OsgEarthNet.uav[33] utilizationSecMaintenance 2999.8851435416
scalar OsgEarthNet.uav[33] utilizationSecCharge 33960
scalar OsgEarthNet.uav[33] utilizationSecIdle 216077.45966399
scalar OsgEarthNet.uav[33] utilizationEnergyMission 28669.717658997
scalar OsgEarthNet.uav[33] utilizationEnergyMaintenance 13963.348350525
scalar OsgEarthNet.uav[33] utilizationEnergyCharge 42633.053710938
scalar OsgEarthNet.uav[33] utilizationEnergyOverdrawMission 0
scalar OsgEarthNet.uav[33] utilizationEnergyOverdrawMaintenance 0
scalar OsgEarthNet.uav[33] utilizationCountMissions 9
scalar OsgEarthNet.uav[33] utilizationCountManeuversMission 101
scalar OsgEarthNet.uav[33] utilizationCountManeuversMaintenance 18
scalar OsgEarthNet.uav[33] utilizationCountChargeState 9
scalar OsgEarthNet.uav[33] utilizationCountOverdrawnAfterMission 0
scalar OsgEarthNet.uav[33] utilizationCountIdleState 10
scalar OsgEarthNet.uav[33] utilizationFail 0
scalar OsgEarthNet.uav[33] simulationTime 259200
scalar OsgEarthNet.uav[34] utilizationSecMission 4020.9732893733
scalar OsgEarthNet.uav[34] utilizationSecMaintenance 1960.1446880759
scalar OsgEarthNet.uav[34] utilizationSecCharge 22560
scalar OsgEarthNet.uav[34] utilizationSecIdle 230658.88102255
scalar OsgEarthNet.uav[34] utilizationEnergyMission 18341.976600647
scalar OsgEarthNet.uav[34] utilizationEnergyMaintenance 9926.4767837524
scalar OsgEarthNet.uav[34] utilizationEnergyCharge 28268.449707031
scalar OsgEarthNet.uav[34] utilizationEnergyOverdrawMission 0
scalar OsgEarthNet.uav[34] utilizationEnergyOverdrawMaintenance 0
scalar OsgEarthNet.uav[34] utilizationCountMissions 6
scalar OsgEarthNet.uav[34] utilizationCountManeuversMission 62
scalar OsgEarthNet.uav[34] utilizationCountManeuversMaintenance 12
scalar OsgEarthNet.uav[34] utilizationCountChargeState 6
scalar OsgEarthNet.uav[34] utilizationCountOverdrawnAfterMission 0
scalar OsgEarthNet.uav[34] utilizationCountIdleState 7
scalar OsgEarthNet.uav[34] utilizationFail 0
scalar OsgEarthNet.uav[34] simulationTime 259200
scalar OsgEarthNet.uav[35] utilizationSecMission 42756.221728511
scalar OsgEarthNet.uav[35] utilizationSecMaintenance 13830.076203142
scalar OsgEarthNet.uav[35] utilizationSecCharge 196851.70106835
scalar OsgEarthNet.uav[35] utilizationSecIdle 5762
scalar OsgEarthNet.uav[35] utilizationEnergyMission 196397.59249677
scalar OsgEarthNet.uav[35] utilizationEnergyMaintenance 63621.319248199
scalar OsgEarthNet.uav[35] utilizationEnergyCharge 258896.83544922
scalar OsgEarthNet.uav[35] utilizationEnergyOverdrawMission 0
scalar OsgEarthNet.uav[35] utilizationEnergyOverdrawMaintenance 0
scalar OsgEarthNet.uav[35] utilizationCountMissions 55
scalar OsgEarthNet.uav[35] utilizationCountManeuversMission 740
scalar OsgEarthNet.uav[35] utilizationCountManeuversMaintenance 109
scalar OsgEarthNet.uav[35] utilizationCountChargeState 55
scalar OsgEarthNet.uav[35] utilizationCountOverdrawnAfterMission 0
scalar OsgEarthNet.uav[35] utilizationCountIdleState 19
scalar OsgEarthNet.uav[35] utilizationFail 0
scalar OsgEarthNet.uav[35] simulationTime 259200
scalar OsgEarthNet.uav[36] utilizationSecMission 1912.9617797686
scalar OsgEarthNet.uav[36] utilizationSecMaintenance 1103.5713447774
scalar OsgEarthNet.uav[36] utilizationSecCharge 11170
scalar OsgEarthNet.uav[36] utilizationSecIdle 245013.46587545
scalar OsgEarthNet.uav[36] utilizationEnergyMission 8722.9217071533
scalar OsgEarthNet.uav[36] utilizationEnergyMaintenance 5254.1577911377
scalar OsgEarthNet.uav[36] utilizationEnergyCharge 13977.089355469
scalar OsgEarthNet.uav[36] utilizationEnergyOverdrawMission 0
scalar OsgEarthNet.uav[36] utilizationEnergyOverdrawMaintenance 0
scalar OsgEarthNet.uav[36] utilizationCountMissions 3
scalar OsgEarthNet.uav[36] utilizationCountManeuversMission 31
scalar OsgEarthNet.uav[36] utilizationCountManeuversMaintenance 6
scalar OsgEarthNet.uav[36] utilizationCountChargeState 3
scalar OsgEarthNet.uav[36] utilizationCountOverdrawnAfterMission 0
scalar OsgEarthNet.uav[36] utilizationCountIdleState 4
scalar OsgEarthNet.uav[36] utilizationFail 0
scalar OsgEarthNet.uav[36] simulationTime 259200
scalar OsgEarthNet.uav[37] utilizationSecMission 2546.2938075995
scalar OsgEarthNet.uav[37] utilizationSecMaintenance 1511.3172949384
scalar OsgEarthNet.uav[37] utilizationSecCharge 15500
scalar OsgEarthNet.uav[37] utilizationSecIdle 239642.38789746
scalar OsgEarthNet.uav[37] utilizationEnergyMission 12297.618240356
scalar OsgEarthNet.uav[37] utilizationEnergyMaintenance 7372.5339317322
scalar OsgEarthNet.uav[37] utilizationEnergyCharge 19670.147949219
scalar OsgEarthNet.uav[37] utilizationEnergyOverdrawMission 0
scalar OsgEarthNet.uav[37] utilizationEnergyOverdrawMaintenance 0
scalar OsgEarthNet.uav[37] utilizationCountMissions 4
scalar OsgEarthNet.uav[37] utilizationCountManeuversMission 42
scalar OsgEarthNet.uav[37] utilizationCountManeuversMaintenance 8
scalar OsgEarthNet.uav[37] utilizationCountChargeState 4
scalar OsgEarthNet.uav[37] utilizationCountOverdrawnAfterMission 0
scalar OsgEarthNet.uav[37] utilizationCountIdleState 5
scalar OsgEarthNet.uav[37] utilizationFail 0
scalar OsgEarthNet.uav[37] simulationTime 259200
scalar OsgEarthNet.uav[38] utilizationSecMission 2825.6332453482
scalar OsgEarthNet.uav[38] utilizationSecMaintenance 1354.642938228
scalar OsgEarthNet.uav[38] utilizationSecCharge 15150
scalar OsgEarthNet.uav[38] utilizationSecIdle 239869.72281642
scalar OsgEarthNet.uav[38] utilizationEnergyMission 12719.455718994
scalar OsgEarthNet.uav[38] utilizationEnergyMaintenance 6247.9451751709
scalar OsgEarthNet.uav[38] utilizationEnergyCharge 18967.40625
scalar OsgEarthNet.uav[38] utilizationEnergyOverdrawMission 0
scalar OsgEarthNet.uav[38] utilizationEnergyOverdrawMaintenance 0
scalar OsgEarthNet.uav[38] utilizationCountMissions 4
scalar OsgEarthNet.uav[38] utilizationCountManeuversMission 44
scalar OsgEarthNet.uav[38] utilizationCountManeuversMaintenance 8
scalar OsgEarthNet.uav[38] utilizationCountChargeState 4
scalar OsgEarthNet.uav[38] utilizationCountOverdrawnAfterMission 0
scalar OsgEarthNet.uav[38] utilizationCountIdleState 5
scalar OsgEarthNet.uav[38] utilizationFail 0
scalar OsgEarthNet.uav[38] simulationTime 259200
scalar OsgEarthNet.uav[39] utilizationSecMission 14322.151783238
scalar OsgEarthNet.uav[39] utilizationSecMaintenance 6262.8324685764
scalar OsgEarthNet.uav[39] utilizationSecCharge 76340
scalar OsgEarthNet.uav[39] utilizationSecIdle 162275.01474819
scalar OsgEarthNet.uav[39] utilizationEnergyMission 66863.904945374
scalar OsgEarthNet.uav[39] utilizationEnergyMaintenance 29671.459449768
scalar OsgEarthNet.uav[39] utilizationEnergyCharge 96295.469238281
scalar OsgEarthNet.uav[39] utilizationEnergyOverdrawMission 0
scalar OsgEarthNet.uav[39] utilizationEnergyOverdrawMaintenance 0
scalar OsgEarthNet.uav[39] utilizationCountMissions 21
scalar OsgEarthNet.uav[39] utilizationCountManeuversMission 234
scalar OsgEarthNet.uav[39] utilizationCountManeuversMaintenance 42
scalar OsgEarthNet.uav[39] utilizationCountChargeState 21
scalar OsgEarthNet.uav[39] utilizationCountOverdrawnAfterMission 0
scalar OsgEarthNet.uav[39] utilizationCountIdleState 17
scalar OsgEarthNet.uav[39] utilizationFail 0
scalar OsgEarthNet.uav[39] simulationTime 259200
scalar OsgEarthNet.uav[40] utilizationSecMission 4543.977365872
scalar OsgEarthNet.uav[40] utilizationSecMaintenance 2550.6745157411
scalar OsgEarthNet.uav[40] utilizationSecCharge 26460
scalar OsgEarthNet.uav[40] utilizationSecIdle 225645.34711839
scalar OsgEarthNet.uav[40] utilizationEnergyMission 20655.660652161
scalar OsgEarthNet.uav[40] utilizationEnergyMaintenance 12466.919464111
scalar OsgEarthNet.uav[40] utilizationEnergyCharge 33122.578613281
scalar OsgEarthNet.uav[40] utilizationEnergyOverdrawMission 0
scalar OsgEarthNet.uav[40] utilizationEnergyOverdrawMaintenance 0
scalar OsgEarthNet.uav[40] utilizationCountMissions 7
scalar OsgEarthNet.uav[40] utilizationCountManeuversMission 73
scalar OsgEarthNet.uav[40] utilizationCountManeuversMaintenance 14
scalar OsgEarthNet.uav[40] utilizationCountChargeState 7
scalar OsgEarthNet.uav[40] utilizationCountOverdrawnAfterMission 0
scalar OsgEarthNet.uav[40] utilizationCountIdleState 8
scalar OsgEarthNet.uav[40] utilizationFail 0
scalar OsgEarthNet.uav[40] simulationTime 259200
scalar OsgEarthNet.uav[41] utilizationSecMission 8125.0406725629
scalar OsgEarthNet.uav[41] utilizationSecMaintenance 4162.2436437571
scalar OsgEarthNet.uav[41] utilizationSecCharge 45630
scalar OsgEarthNet.uav[41] utilizationSecIdle 201282.71468368
scalar OsgEarthNet.uav[41] utilizationEnergyMission 37126.463188171
scalar OsgEarthNet.uav[41] utilizationEnergyMaintenance 20171.889186859
scalar OsgEarthNet.uav[41] utilizationEnergyCharge 57298.355957031
scalar OsgEarthNet.uav[41] utilizationEnergyOverdrawMission 0
scalar OsgEarthNet.uav[41] utilizationEnergyOverdrawMaintenance 0
scalar OsgEarthNet.uav[41] utilizationCountMissions 12
scalar OsgEarthNet.uav[41] utilizationCountManeuversMission 137
scalar OsgEarthNet.uav[41] utilizationCountManeuversMaintenance 24
scalar OsgEarthNet.uav[41] utilizationCountChargeState 12
scalar OsgEarthNet.uav[41] utilizationCountOverdrawnAfterMission 0
scalar OsgEarthNet.uav[41] utilizationCountIdleState 13
scalar OsgEarthNet.uav[41] utilizationFail 0
scalar OsgEarthNet.uav[41] simulationTime 259200
scalar OsgEarthNet.uav[42] utilizationSecMission 42381.599398669
scalar OsgEarthNet.uav[42] utilizationSecMaintenance 13796.335930576
scalar OsgEarthNet.uav[42] utilizationSecCharge 193575.34483464
scalar OsgEarthNet.uav[42] utilizationSecIdle 9446.7188361112
scalar OsgEarthNet.uav[42] utilizationEnergyMission 197149.7789917
scalar OsgEarthNet.uav[42] utilizationEnergyMaintenance 63616.469959259
scalar OsgEarthNet.uav[42] utilizationEnergyCharge 257243.88916016
scalar OsgEarthNet.uav[42] utilizationEnergyOverdrawMission 0
scalar OsgEarthNet.uav[42] utilizationEnergyOverdrawMaintenance 0
scalar OsgEarthNet.uav[42] utilizationCountMissions 55
scalar OsgEarthNet.uav[42] utilizationCountManeuversMission 734
scalar OsgEarthNet.uav[42] utilizationCountManeuversMaintenance 110
scalar OsgEarthNet.uav[42] utilizationCountChargeState 55
scalar OsgEarthNet.uav[42] utilizationCountOverdrawnAfterMission 0
scalar OsgEarthNet.uav[42] utilizationCountIdleState 19
scalar OsgEarthNet.uav[42] utilizationFail 0
scalar OsgEarthNet.uav[42] simulationTime 259200
scalar OsgEarthNet.uav[43] utilizationSecMission 9878.4448428974
scalar OsgEarthNet.uav[43] utilizationSecMaintenance 4918.0403801747
scalar OsgEarthNet.uav[43] utilizationSecCharge 54760
scalar OsgEarthNet.uav[43] utilizationSecIdle 189643.51377693
scalar OsgEarthNet.uav[43] utilizationEnergyMission 46424.206764221
scalar OsgEarthNet.uav[43] utilizationEnergyMaintenance 23146.481201172
scalar OsgEarthNet.uav[43] utilizationEnergyCharge 69570.701171875
scalar OsgEarthNet.uav[43] utilizationEnergyOverdrawMission 0
scalar OsgEarthNet.uav[43] utilizationEnergyOverdrawMaintenance 0
scalar OsgEarthNet.uav[43] utilizationCountMissions 15
scalar OsgEarthNet.uav[43] utilizationCountManeuversMission 164
scalar OsgEarthNet.uav[43] utilizationCountManeuversMaintenance 30
scalar OsgEarthNet.uav[43] utilizationCountChargeState 15
scalar OsgEarthNet.uav[43] utilizationCountOverdrawnAfterMission 0
scalar OsgEarthNet.uav[43] utilizationCountIdleState 11
scalar OsgEarthNet.uav[43] utilizationFail 0
scalar OsgEarthNet.uav[43] simulationTime 259200
scalar OsgEarthNet.uav[44] utilizationSecMission 5763.7227660667
scalar OsgEarthNet.uav[44] utilizationSecMaintenance 3074.3272638386
scalar OsgEarthNet.uav[44] utilizationSecCharge 33000
scalar OsgEarthNet.uav[44] utilizationSecIdle 217361.94897009
scalar OsgEarthNet.uav[44] utilizationEnergyMission 26813.981674194
scalar OsgEarthNet.uav[44] utilizationEnergyMaintenance 14949.442516327
scalar OsgEarthNet.uav[44] utilizationEnergyCharge 41763.437988281
scalar OsgEarthNet.uav[44] utilizationEnergyOverdrawMission 0
scalar OsgEarthNet.uav[44] utilizationEnergyOverdrawMaintenance 0
scalar OsgEarthNet.uav[44] utilizationCountMissions 9
scalar OsgEarthNet.uav[44] utilizationCountManeuversMission 98
scalar OsgEarthNet.uav[44] utilizationCountManeuversMaintenance 18
scalar OsgEarthNet.uav[44] utilizationCountChargeState 9
scalar OsgEarthNet.uav[44] utilizationCountOverdrawnAfterMission 0
scalar OsgEarthNet.uav[44] utilizationCountIdleState 7
scalar OsgEarthNet.uav[44] utilizationFail 0
scalar OsgEarthNet.uav[44] simulationTime 259200
scalar OsgEarthNet.uav[45] utilizationSecMission 15455.64547971
scalar OsgEarthNet.uav[45] utilizationSecMaintenance 5767.3016940319
scalar OsgEarthNet.uav[45] utilizationSecCharge 78237.876715847
scalar OsgEarthNet.uav[45] utilizationSecIdle 159739.17511041
scalar OsgEarthNet.uav[45] utilizationEnergyMission 71313.259056091
scalar OsgEarthNet.uav[45] utilizationEnergyMaintenance 26896.415523529
scalar OsgEarthNet.uav[45] utilizationEnergyCharge 98032.662109375
scalar OsgEarthNet.uav[45] utilizationEnergyOverdrawMission 0
scalar OsgEarthNet.uav[45] utilizationEnergyOverdrawMaintenance 0
scalar OsgEarthNet.uav[45] utilizationCountMissions 21
scalar OsgEarthNet.uav[45] utilizationCountManeuversMission 242
scalar OsgEarthNet.uav[45] utilizationCountManeuversMaintenance 42
scalar OsgEarthNet.uav[45] utilizationCountChargeState 21
scalar OsgEarthNet.uav[45] utilizationCountOverdrawnAfterMission 0
scalar OsgEarthNet.uav[45] utilizationCountIdleState 20
scalar OsgEarthNet.uav[45] utilizationFail 0
scalar OsgEarthNet.uav[45] simulationTime 259200
scalar OsgEarthNet.uav[46] utilizationSecMission 5478.0212811069
scalar OsgEarthNet.uav[46] utilizationSecMaintenance 2310.5385918504
scalar OsgEarthNet.uav[46] utilizationSecCharge 29320
scalar OsgEarthNet.uav[46] utilizationSecIdle 222091.43912704
scalar OsgEarthNet.uav[46] utilizationEnergyMission 25523.990852356
scalar OsgEarthNet.uav[46] utilizationEnergyMaintenance 10889.910919189
scalar OsgEarthNet.uav[46] utilizationEnergyCharge 36413.911621094
scalar OsgEarthNet.uav[46] utilizationEnergyOverdrawMission 0
scalar OsgEarthNet.uav[46] utilizationEnergyOverdrawMaintenance 0
scalar OsgEarthNet.uav[46] utilizationCountMissions 8
scalar OsgEarthNet.uav[46] utilizationCountManeuversMission 85
scalar OsgEarthNet.uav[46] utilizationCountManeuversMaintenance 16
scalar OsgEarthNet.uav[46] utilizationCountChargeState 8
scalar OsgEarthNet.uav[46] utilizationCountOverdrawnAfterMission 0
scalar OsgEarthNet.uav[46] utilizationCountIdleState 9
scalar OsgEarthNet.uav[46] utilizationFail 0
scalar OsgEarthNet.uav[46] simulationTime 259200
scalar OsgEarthNet.uav[47] utilizationSecMission 14221.820193495
scalar OsgEarthNet.uav[47] utilizationSecMaintenance 5233.6466807115
scalar OsgEarthNet.uav[47] utilizationSecCharge 73690
scalar OsgEarthNet.uav[47] utilizationSecIdle 166054.53212579
scalar OsgEarthNet.uav[47] utilizationEnergyMission 66865.948303223
scalar OsgEarthNet.uav[47] utilizationEnergyMaintenance 25648.065534661
scalar OsgEarthNet.uav[47] utilizationEnergyCharge 92248.154296875
scalar OsgEarthNet.uav[47] utilizationEnergyOverdrawMission 0
scalar OsgEarthNet.uav[47] utilizationEnergyOverdrawMaintenance 0
scalar OsgEarthNet.uav[47] utilizationCountMissions 20
scalar OsgEarthNet.uav[47] utilizationCountManeuversMission 225
scalar OsgEarthNet.uav[47] utilizationCountManeuversMaintenance 41
scalar OsgEarthNet.uav[47] utilizationCountChargeState 20
scalar OsgEarthNet.uav[47] utilizationCountOverdrawnAfterMission 0
scalar OsgEarthNet.uav[47] utilizationCountIdleState 19
scalar OsgEarthNet.uav[47] utilizationFail 0
scalar OsgEarthNet.uav[47] simulationTime 259200
scalar OsgEarthNet.uav[48] utilizationSecMission 41805.447044156
scalar OsgEarthNet.uav[48] utilizationSecMaintenance 12939.444622835
scalar OsgEarthNet.uav[48] utilizationSecCharge 192401.63281625
scalar OsgEarthNet.uav[48] utilizationSecIdle 12053.47451676
scalar OsgEarthNet.uav[48] utilizationEnergyMission 193853.10339737
scalar OsgEarthNet.uav[48] utilizationEnergyMaintenance 59312.667488098
scalar OsgEarthNet.uav[48] utilizationEnergyCharge 249318.63037109
scalar OsgEarthNet.uav[48] utilizationEnergyOverdrawMission 0
scalar OsgEarthNet.uav[48] utilizationEnergyOverdrawMaintenance 0
scalar OsgEarthNet.uav[48] utilizationCountMissions 53
scalar OsgEarthNet.uav[48] utilizationCountManeuversMission 718
scalar OsgEarthNet.uav[48] utilizationCountManeuversMaintenance 106
scalar OsgEarthNet.uav[48] utilizationCountChargeState 53
scalar OsgEarthNet.uav[48] utilizationCountOverdrawnAfterMission 0
scalar OsgEarthNet.uav[48] utilizationCountIdleState 25
scalar OsgEarthNet.uav[48] utilizationFail 0
scalar OsgEarthNet.uav[48] simulationTime 259200
scalar OsgEarthNet.uav[49] utilizationSecMission 11935.68339738
scalar OsgEarthNet.uav[49] utilizationSecMaintenance 5840.7495697529
scalar OsgEarthNet.uav[49] utilizationSecCharge 65990
scalar OsgEarthNet.uav[49] utilizationSecIdle 175433.56603287
scalar OsgEarthNet.uav[49] utilizationEnergyMission 55283.881759644
scalar OsgEarthNet.uav[49] utilizationEnergyMaintenance 27707.368766785
scalar OsgEarthNet.uav[49] utilizationEnergyCharge 82991.252929688
scalar OsgEarthNet.uav[49] utilizationEnergyOverdrawMission 0
scalar OsgEarthNet.uav[49] utilizationEnergyOverdrawMaintenance 0
scalar OsgEarthNet.uav[49] utilizationCountMissions 18
scalar OsgEarthNet.uav[49] utilizationCountManeuversMission 199
scalar OsgEarthNet.uav[49] utilizationCountManeuversMaintenance 36
scalar OsgEarthNet.uav[49] utilizationCountChargeState 18
scalar OsgEarthNet.uav[49] utilizationCountOverdrawnAfterMission 0
scalar OsgEarthNet.uav[49] utilizationCountIdleState 12
scalar OsgEarthNet.uav[49] utilizationFail 0
scalar OsgEarthNet.uav[49] simulationTime 259200
scalar OsgEarthNet.uav[50] utilizationSecMission 15063.408153249
scalar OsgEarthNet.uav[50] utilizationSecMaintenance 4474.7168756886
scalar OsgEarthNet.uav[50] utilizationSecCharge 73610
scalar OsgEarthNet.uav[50] utilizationSecIdle 166051.87397106
scalar OsgEarthNet.uav[50] utilizationEnergyMission 69543.78263092
scalar OsgEarthNet.uav[50] utilizationEnergyMaintenance 22184.992763519
scalar OsgEarthNet.uav[50] utilizationEnergyCharge 91691.048339844
scalar OsgEarthNet.uav[50] utilizationEnergyOverdrawMission 0
scalar OsgEarthNet.uav[50] utilizationEnergyOverdrawMaintenance 0
scalar OsgEarthNet.uav[50] utilizationCountMissions 20
scalar OsgEarthNet.uav[50] utilizationCountManeuversMission 232
scalar OsgEarthNet.uav[50] utilizationCountManeuversMaintenance 40
scalar OsgEarthNet.uav[50] utilizationCountChargeState 20
scalar OsgEarthNet.uav[50] utilizationCountOverdrawnAfterMission 0
scalar OsgEarthNet.uav[50] utilizationCountIdleState 21
scalar OsgEarthNet.uav[50] utilizationFail 0
scalar OsgEarthNet.uav[50] simulationTime 259200
scalar OsgEarthNet.uav[51] utilizationSecMission 13475.580724879
scalar OsgEarthNet.uav[51] utilizationSecMaintenance 6432.9610946668
scalar OsgEarthNet.uav[51] utilizationSecCharge 73360
scalar OsgEarthNet.uav[51] utilizationSecIdle 165931.45718045
scalar OsgEarthNet.uav[51] utilizationEnergyMission 63079.485588074
scalar OsgEarthNet.uav[51] utilizationEnergyMaintenance 30292.029445648
scalar OsgEarthNet.uav[51] utilizationEnergyCharge 93371.507324219
scalar OsgEarthNet.uav[51] utilizationEnergyOverdrawMission 0
scalar OsgEarthNet.uav[51] utilizationEnergyOverdrawMaintenance 0
scalar OsgEarthNet.uav[51] utilizationCountMissions 20
scalar OsgEarthNet.uav[51] utilizationCountManeuversMission 230
scalar OsgEarthNet.uav[51] utilizationCountManeuversMaintenance 40
scalar OsgEarthNet.uav[51] utilizationCountChargeState 20
scalar OsgEarthNet.uav[51] utilizationCountOverdrawnAfterMission 0
scalar OsgEarthNet.uav[51] utilizationCountIdleState 14
scalar OsgEarthNet.uav[51] utilizationFail 0
scalar OsgEarthNet.uav[51] simulationTime 259200
scalar OsgEarthNet.uav[52] utilizationSecMission 42471.044511631
scalar OsgEarthNet.uav[52] utilizationSecMaintenance 13419.553611693
scalar OsgEarthNet.uav[52] utilizationSecCharge 192740
scalar OsgEarthNet.uav[52] utilizationSecIdle 10569.400876676
scalar OsgEarthNet.uav[52] utilizationEnergyMission 196150.97022107
scalar OsgEarthNet.uav[52] utilizationEnergyMaintenance 61763.497154236
scalar OsgEarthNet.uav[52] utilizationEnergyCharge 255199.57666016
scalar OsgEarthNet.uav[52] utilizationEnergyOverdrawMission 0
scalar OsgEarthNet.uav[52] utilizationEnergyOverdrawMaintenance 0
scalar OsgEarthNet.uav[52] utilizationCountMissions 54
scalar OsgEarthNet.uav[52] utilizationCountManeuversMission 732
scalar OsgEarthNet.uav[52] utilizationCountManeuversMaintenance 109
scalar OsgEarthNet.uav[52] utilizationCountChargeState 54
scalar OsgEarthNet.uav[52] utilizationCountOverdrawnAfterMission 0
scalar OsgEarthNet.uav[52] utilizationCountIdleState 21
scalar OsgEarthNet.uav[52] utilizationFail 0
scalar OsgEarthNet.uav[52] simulationTime 259200
scalar OsgEarthNet.uav[53] utilizationSecMission 2815.5664870051
scalar OsgEarthNet.uav[53] utilizationSecMaintenance 1213.0755861308
scalar OsgEarthNet.uav[53] utilizationSecCharge 15240
scalar OsgEarthNet.uav[53] utilizationSecIdle 239931.35692686
scalar OsgEarthNet.uav[53] utilizationEnergyMission 13104.619354248
scalar OsgEarthNet.uav[53] utilizationEnergyMaintenance 6044.6329498291
scalar OsgEarthNet.uav[53] utilizationEnergyCharge 19149.260742188
scalar OsgEarthNet.uav[53] utilizationEnergyOverdrawMission 0
scalar OsgEarthNet.uav[53] utilizationEnergyOverdrawMaintenance 0
scalar OsgEarthNet.uav[53] utilizationCountMissions 4
scalar OsgEarthNet.uav[53] utilizationCountManeuversMission 42
scalar OsgEarthNet.uav[53] utilizationCountManeuversMaintenance 7
scalar OsgEarthNet.uav[53] utilizationCountChargeState 4
scalar OsgEarthNet.uav[53] utilizationCountOverdrawnAfterMission 0
scalar OsgEarthNet.uav[53] utilizationCountIdleState 5
scalar OsgEarthNet.uav[53] utilizationFail 0
scalar OsgEarthNet.uav[53] simulationTime 259200
scalar OsgEarthNet.uav[54] utilizationSecMission 4513.2786168447
scalar OsgEarthNet.uav[54] utilizationSecMaintenance 2482.5585767855
scalar OsgEarthNet.uav[54] utilizationSecCharge 26380
scalar OsgEarthNet.uav[54] utilizationSecIdle 225824.16180637
scalar OsgEarthNet.uav[54] utilizationEnergyMission 21206.631134033
scalar OsgEarthNet.uav[54] utilizationEnergyMaintenance 12227.331054687
scalar OsgEarthNet.uav[54] utilizationEnergyCharge 33433.957519531
scalar OsgEarthNet.uav[54] utilizationEnergyOverdrawMission 0
scalar OsgEarthNet.uav[54] utilizationEnergyOverdrawMaintenance 0
scalar OsgEarthNet.uav[54] utilizationCountMissions 7
scalar OsgEarthNet.uav[54] utilizationCountManeuversMission 74
scalar OsgEarthNet.uav[54] utilizationCountManeuversMaintenance 14
scalar OsgEarthNet.uav[54] utilizationCountChargeState 7
scalar OsgEarthNet.uav[54] utilizationCountOverdrawnAfterMission 0
scalar OsgEarthNet.uav[54] utilizationCountIdleState 7
scalar OsgEarthNet.uav[54] utilizationFail 0
scalar OsgEarthNet.uav[54] simulationTime 259200
scalar OsgEarthNet.uav[55] utilizationSecMission 42550.735810127
scalar OsgEarthNet.uav[55] utilizationSecMaintenance 13867.41894582
scalar OsgEarthNet.uav[55] utilizationSecCharge 195864.39398002
scalar OsgEarthNet.uav[55] utilizationSecIdle 6917.4502640309
scalar OsgEarthNet.uav[55] utilizationEnergyMission 196329.02510834
scalar OsgEarthNet.uav[55] utilizationEnergyMaintenance 63660.254302979
scalar OsgEarthNet.uav[55] utilizationEnergyCharge 258663.45458984
scalar OsgEarthNet.uav[55] utilizationEnergyOverdrawMission 0
scalar OsgEarthNet.uav[55] utilizationEnergyOverdrawMaintenance 0
scalar OsgEarthNet.uav[55] utilizationCountMissions 55
scalar OsgEarthNet.uav[55] utilizationCountManeuversMission 738
scalar OsgEarthNet.uav[55] utilizationCountManeuversMaintenance 110
scalar OsgEarthNet.uav[55] utilizationCountChargeState 55
scalar OsgEarthNet.uav[55] utilizationCountOverdrawnAfterMission 0
scalar OsgEarthNet.uav[55] utilizationCountIdleState 28
scalar OsgEarthNet.uav[55] utilizationFail 0
scalar OsgEarthNet.uav[55] simulationTime 259200
scalar OsgEarthNet.uav[56] utilizationSecMission 17483.287945502
scalar OsgEarthNet.uav[56] utilizationSecMaintenance 5490.7327932425
scalar OsgEarthNet.uav[56] utilizationSecCharge 82096.022976009
scalar OsgEarthNet.uav[56] utilizationSecIdle 154129.95528525
scalar OsgEarthNet.uav[56] utilizationEnergyMission 79974.223217011
scalar OsgEarthNet.uav[56] utilizationEnergyMaintenance 26310.147186279
scalar OsgEarthNet.uav[56] utilizationEnergyCharge 102732.71533203
scalar OsgEarthNet.uav[56] utilizationEnergyOverdrawMission 0
scalar OsgEarthNet.uav[56] utilizationEnergyOverdrawMaintenance 0
scalar OsgEarthNet.uav[56] utilizationCountMissions 23
scalar OsgEarthNet.uav[56] utilizationCountManeuversMission 265
scalar OsgEarthNet.uav[56] utilizationCountManeuversMaintenance 46
scalar OsgEarthNet.uav[56] utilizationCountChargeState 23
scalar OsgEarthNet.uav[56] utilizationCountOverdrawnAfterMission 0
scalar OsgEarthNet.uav[56] utilizationCountIdleState 23
scalar OsgEarthNet.uav[56] utilizationFail 0
scalar OsgEarthNet.uav[56] simulationTime 259200
scalar OsgEarthNet.uav[57] utilizationSecMission 3820.5606332389
scalar OsgEarthNet.uav[57] utilizationSecMaintenance 2272.6649172144
scalar OsgEarthNet.uav[57] utilizationSecCharge 22750
scalar OsgEarthNet.uav[57] utilizationSecIdle 230356.77344955
scalar OsgEarthNet.uav[57] utilizationEnergyMission 17741.734413147
scalar OsgEarthNet.uav[57] utilizationEnergyMaintenance 10791.125049591
scalar OsgEarthNet.uav[57] utilizationEnergyCharge 28532.854492188
scalar OsgEarthNet.uav[57] utilizationEnergyOverdrawMission 0
scalar OsgEarthNet.uav[57] utilizationEnergyOverdrawMaintenance 0
scalar OsgEarthNet.uav[57] utilizationCountMissions 6
scalar OsgEarthNet.uav[57] utilizationCountManeuversMission 64
scalar OsgEarthNet.uav[57] utilizationCountManeuversMaintenance 12
scalar OsgEarthNet.uav[57] utilizationCountChargeState 6
scalar OsgEarthNet.uav[57] utilizationCountOverdrawnAfterMission 0
scalar OsgEarthNet.uav[57] utilizationCountIdleState 7
scalar OsgEarthNet.uav[57] utilizationFail 0
scalar OsgEarthNet.uav[57] simulationTime 259200
scalar OsgEarthNet.uav[58] utilizationSecMission 2600.0114421131
scalar OsgEarthNet.uav[58] utilizationSecMaintenance 1443.1504013454
scalar OsgEarthNet.uav[58] utilizationSecCharge 15180
scalar OsgEarthNet.uav[58] utilizationSecIdle 239976.83715654
scalar OsgEarthNet.uav[58] utilizationEnergyMission 12304.849983215
scalar OsgEarthNet.uav[58] utilizationEnergyMaintenance 6738.5325164795
scalar OsgEarthNet.uav[58] utilizationEnergyCharge 19043.376953125
scalar OsgEarthNet.uav[58] utilizationEnergyOverdrawMission 0
scalar OsgEarthNet.uav[58] utilizationEnergyOverdrawMaintenance 0
scalar OsgEarthNet.uav[58] utilizationCountMissions 4
scalar OsgEarthNet.uav[58] utilizationCountManeuversMission 40
scalar OsgEarthNet.uav[58] utilizationCountManeuversMaintenance 8
scalar OsgEarthNet.uav[58] utilizationCountChargeState 4
scalar OsgEarthNet.uav[58] utilizationCountOverdrawnAfterMission 0
scalar OsgEarthNet.uav[58] utilizationCountIdleState 5
scalar OsgEarthNet.uav[58] utilizationFail 0
scalar OsgEarthNet.uav[58] simulationTime 259200
scalar OsgEarthNet.uav[59] utilizationSecMission 10671.733021439
scalar OsgEarthNet.uav[59] utilizationSecMaintenance 5405.3064476582
scalar OsgEarthNet.uav[59] utilizationSecCharge 59740
scalar OsgEarthNet.uav[59] utilizationSecIdle 183382.9595309
scalar OsgEarthNet.uav[59] utilizationEnergyMission 49105.78288269
scalar OsgEarthNet.uav[59] utilizationEnergyMaintenance 25686.319408417
scalar OsgEarthNet.uav[59] utilizationEnergyCharge 74792.104980469
scalar OsgEarthNet.uav[59] utilizationEnergyOverdrawMission 0
scalar OsgEarthNet.uav[59] utilizationEnergyOverdrawMaintenance 0
scalar OsgEarthNet.uav[59] utilizationCountMissions 16
scalar OsgEarthNet.uav[59] utilizationCountManeuversMission 182
scalar OsgEarthNet.uav[59] utilizationCountManeuversMaintenance 32
scalar OsgEarthNet.uav[59] utilizationCountChargeState 16
scalar OsgEarthNet.uav[59] utilizationCountOverdrawnAfterMission 0
scalar OsgEarthNet.uav[59] utilizationCountIdleState 15
scalar OsgEarthNet.uav[59] utilizationFail 0
scalar OsgEarthNet.uav[59] simulationTime 259200
scalar OsgEarthNet.uav[60] utilizationSecMission 6633.7866873377
scalar OsgEarthNet.uav[60] utilizationSecMaintenance 2420.2683668354
scalar OsgEarthNet.uav[60] utilizationSecCharge 33590
scalar OsgEarthNet.uav[60] utilizationSecIdle 216555.94394583
scalar OsgEarthNet.uav[60] utilizationEnergyMission 30533.769821167
scalar OsgEarthNet.uav[60] utilizationEnergyMaintenance 11457.198539734
scalar OsgEarthNet.uav[60] utilizationEnergyCharge 41990.975585938
scalar OsgEarthNet.uav[60] utilizationEnergyOverdrawMission 0
scalar OsgEarthNet.uav[60] utilizationEnergyOverdrawMaintenance 0
scalar OsgEarthNet.uav[60] utilizationCountMissions 9
scalar OsgEarthNet.uav[60] utilizationCountManeuversMission 101
scalar OsgEarthNet.uav[60] utilizationCountManeuversMaintenance 18
scalar OsgEarthNet.uav[60] utilizationCountChargeState 9
scalar OsgEarthNet.uav[60] utilizationCountOverdrawnAfterMission 0
scalar OsgEarthNet.uav[60] utilizationCountIdleState 10
scalar OsgEarthNet.uav[60] utilizationFail 0
scalar OsgEarthNet.uav[60] simulationTime 259200
scalar OsgEarthNet.uav[61] utilizationSecMission 16890.019310475
scalar OsgEarthNet.uav[61] utilizationSecMaintenance 6590.6913442512
scalar OsgEarthNet.uav[61] utilizationSecCharge 87126.95461364
scalar OsgEarthNet.uav[61] utilizationSecIdle 148592.33373163
scalar OsgEarthNet.uav[61] utilizationEnergyMission 78790.317749023
scalar OsgEarthNet.uav[61] utilizationEnergyMaintenance 31451.790172577
scalar OsgEarthNet.uav[61] utilizationEnergyCharge 109740.0390625
scalar OsgEarthNet.uav[61] utilizationEnergyOverdrawMission 0
scalar OsgEarthNet.uav[61] utilizationEnergyOverdrawMaintenance 0
scalar OsgEarthNet.uav[61] utilizationCountMissions 24
scalar OsgEarthNet.uav[61] utilizationCountManeuversMission 271
scalar OsgEarthNet.uav[61] utilizationCountManeuversMaintenance 48
scalar OsgEarthNet.uav[61] utilizationCountChargeState 24
scalar OsgEarthNet.uav[61] utilizationCountOverdrawnAfterMission 0
scalar OsgEarthNet.uav[61] utilizationCountIdleState 22
scalar OsgEarthNet.uav[61] utilizationFail 0
scalar OsgEarthNet.uav[61] simulationTime 259200
scalar OsgEarthNet.uav[62] utilizationSecMission 11258.391187975
scalar OsgEarthNet.uav[62] utilizationSecMaintenance 5471.2857267463
scalar OsgEarthNet.uav[62] utilizationSecCharge 59270
scalar OsgEarthNet.uav[62] utilizationSecIdle 183200.32208528
scalar OsgEarthNet.uav[62] utilizationEnergyMission 52638.626477677
scalar OsgEarthNet.uav[62] utilizationEnergyMaintenance 25981.769683838
scalar OsgEarthNet.uav[62] utilizationEnergyCharge 75171.554199219
scalar OsgEarthNet.uav[62] utilizationEnergyOverdrawMission 0
scalar OsgEarthNet.uav[62] utilizationEnergyOverdrawMaintenance 0
scalar OsgEarthNet.uav[62] utilizationCountMissions 16
scalar OsgEarthNet.uav[62] utilizationCountManeuversMission 188
scalar OsgEarthNet.uav[62] utilizationCountManeuversMaintenance 33
scalar OsgEarthNet.uav[62] utilizationCountChargeState 16
scalar OsgEarthNet.uav[62] utilizationCountOverdrawnAfterMission 0
scalar OsgEarthNet.uav[62] utilizationCountIdleState 14
scalar OsgEarthNet.uav[62] utilizationFail 0
scalar OsgEarthNet.uav[62] simulationTime 259200
scalar OsgEarthNet.uav[63] utilizationSecMission 8198.6114240116
scalar OsgEarthNet.uav[63] utilizationSecMaintenance 2797.2020511607
scalar OsgEarthNet.uav[63] utilizationSecCharge 41150
scalar OsgEarthNet.uav[63] utilizationSecIdle 207054.18552483
scalar OsgEarthNet.uav[63] utilizationEnergyMission 38144.677749634
scalar OsgEarthNet.uav[63] utilizationEnergyMaintenance 13390.351932526
scalar OsgEarthNet.uav[63] utilizationEnergyCharge 51535.030761719
scalar OsgEarthNet.uav[63] utilizationEnergyOverdrawMission 0
scalar OsgEarthNet.uav[63] utilizationEnergyOverdrawMaintenance 0
scalar OsgEarthNet.uav[63] utilizationCountMissions 11
scalar OsgEarthNet.uav[63] utilizationCountManeuversMission 127
scalar OsgEarthNet.uav[63] utilizationCountManeuversMaintenance 22
scalar OsgEarthNet.uav[63] utilizationCountChargeState 11
scalar OsgEarthNet.uav[63] utilizationCountOverdrawnAfterMission 0
scalar OsgEarthNet.uav[63] utilizationCountIdleState 12
scalar OsgEarthNet.uav[63] utilizationFail 0
scalar OsgEarthNet.uav[63] simulationTime 259200
scalar OsgEarthNet.uav[64] utilizationSecMission 1778.6081990674
scalar OsgEarthNet.uav[64] utilizationSecMaintenance 1205.1715470203
scalar OsgEarthNet.uav[64] utilizationSecCharge 11260
scalar OsgEarthNet.uav[64] utilizationSecIdle 244956.21925391
scalar OsgEarthNet.uav[64] utilizationEnergyMission 8316.7405395508
scalar OsgEarthNet.uav[64] utilizationEnergyMaintenance 5769.8415679932
scalar OsgEarthNet.uav[64] utilizationEnergyCharge 14086.587402344
scalar OsgEarthNet.uav[64] utilizationEnergyOverdrawMission 0
scalar OsgEarthNet.uav[64] utilizationEnergyOverdrawMaintenance 0
scalar OsgEarthNet.uav[64] utilizationCountMissions 3
scalar OsgEarthNet.uav[64] utilizationCountManeuversMission 28
scalar OsgEarthNet.uav[64] utilizationCountManeuversMaintenance 6
scalar OsgEarthNet.uav[64] utilizationCountChargeState 3
scalar OsgEarthNet.uav[64] utilizationCountOverdrawnAfterMission 0
scalar OsgEarthNet.uav[64] utilizationCountIdleState 4
scalar OsgEarthNet.uav[64] utilizationFail 0
scalar OsgEarthNet.uav[64] simulationTime 259200
scalar OsgEarthNet.uav[65] utilizationSecMission 41852.216838895
scalar OsgEarthNet.uav[65] utilizationSecMaintenance 13370.669327068
[...]
scalar OsgEarthNet.uav[82] utilizationEnergyMission 23707.83039856
scalar OsgEarthNet.uav[82] utilizationEnergyMaintenance 8815.6316719055
scalar OsgEarthNet.uav[82] utilizationEnergyCharge 32322.641113281
scalar OsgEarthNet.uav[82] utilizationEnergyOverdrawMission 0
scalar OsgEarthNet.uav[82] utilizationEnergyOverdrawMaintenance 0
scalar OsgEarthNet.uav[82] utilizationCountMissions 7
scalar OsgEarthNet.uav[82] utilizationCountManeuversMission 78
scalar OsgEarthNet.uav[82] utilizationCountManeuversMaintenance 14
scalar OsgEarthNet.uav[82] utilizationCountChargeState 7
scalar OsgEarthNet.uav[82] utilizationCountOverdrawnAfterMission 0
scalar OsgEarthNet.uav[82] utilizationCountIdleState 8
scalar OsgEarthNet.uav[82] utilizationFail 0
scalar OsgEarthNet.uav[82] simulationTime 259200
scalar OsgEarthNet.uav[83] utilizationSecMission 13387.857035119
scalar OsgEarthNet.uav[83] utilizationSecMaintenance 4623.8771041973
scalar OsgEarthNet.uav[83] utilizationSecCharge 67100
scalar OsgEarthNet.uav[83] utilizationSecIdle 174088.26486068
scalar OsgEarthNet.uav[83] utilizationEnergyMission 61413.449539185
scalar OsgEarthNet.uav[83] utilizationEnergyMaintenance 22536.420463562
scalar OsgEarthNet.uav[83] utilizationEnergyCharge 83917.242675781
scalar OsgEarthNet.uav[83] utilizationEnergyOverdrawMission 0
scalar OsgEarthNet.uav[83] utilizationEnergyOverdrawMaintenance 0
scalar OsgEarthNet.uav[83] utilizationCountMissions 18
scalar OsgEarthNet.uav[83] utilizationCountManeuversMission 203
scalar OsgEarthNet.uav[83] utilizationCountManeuversMaintenance 36
scalar OsgEarthNet.uav[83] utilizationCountChargeState 18
scalar OsgEarthNet.uav[83] utilizationCountOverdrawnAfterMission 0
scalar OsgEarthNet.uav[83] utilizationCountIdleState 19
scalar OsgEarthNet.uav[83] utilizationFail 0
scalar OsgEarthNet.uav[83] simulationTime 259200
scalar OsgEarthNet.uav[84] utilizationSecMission 3050.3649880523
scalar OsgEarthNet.uav[84] utilizationSecMaintenance 1960.5546047405
scalar OsgEarthNet.uav[84] utilizationSecCharge 18184.594192163
scalar OsgEarthNet.uav[84] utilizationSecIdle 236004.48521504
scalar OsgEarthNet.uav[84] utilizationEnergyMission 13760.098670959
scalar OsgEarthNet.uav[84] utilizationEnergyMaintenance 9338.328742981
scalar OsgEarthNet.uav[84] utilizationEnergyCharge 23049.410644531
scalar OsgEarthNet.uav[84] utilizationEnergyOverdrawMission 0
scalar OsgEarthNet.uav[84] utilizationEnergyOverdrawMaintenance 0
scalar OsgEarthNet.uav[84] utilizationCountMissions 5
scalar OsgEarthNet.uav[84] utilizationCountManeuversMission 50
scalar OsgEarthNet.uav[84] utilizationCountManeuversMaintenance 10
scalar OsgEarthNet.uav[84] utilizationCountChargeState 5
scalar OsgEarthNet.uav[84] utilizationCountOverdrawnAfterMission 0
scalar OsgEarthNet.uav[84] utilizationCountIdleState 5
scalar OsgEarthNet.uav[84] utilizationFail 0
scalar OsgEarthNet.uav[84] simulationTime 259200
scalar OsgEarthNet.uav[85] utilizationSecMission 41123.582661628
scalar OsgEarthNet.uav[85] utilizationSecMaintenance 13312.504112431
scalar OsgEarthNet.uav[85] utilizationSecCharge 193353.190695
scalar OsgEarthNet.uav[85] utilizationSecIdle 11410.721530936
scalar OsgEarthNet.uav[85] utilizationEnergyMission 190244.34502792
scalar OsgEarthNet.uav[85] utilizationEnergyMaintenance 61020.06924057
scalar OsgEarthNet.uav[85] utilizationEnergyCharge 251819.24609375
scalar OsgEarthNet.uav[85] utilizationEnergyOverdrawMission 0
scalar OsgEarthNet.uav[85] utilizationEnergyOverdrawMaintenance 0
scalar OsgEarthNet.uav[85] utilizationCountMissions 53
scalar OsgEarthNet.uav[85] utilizationCountManeuversMission 710
scalar OsgEarthNet.uav[85] utilizationCountManeuversMaintenance 106
scalar OsgEarthNet.uav[85] utilizationCountChargeState 53
scalar OsgEarthNet.uav[85] utilizationCountOverdrawnAfterMission 0
scalar OsgEarthNet.uav[85] utilizationCountIdleState 31
scalar OsgEarthNet.uav[85] utilizationFail 0
scalar OsgEarthNet.uav[85] simulationTime 259200
scalar OsgEarthNet.uav[86] utilizationSecMission 6682.8141589399
scalar OsgEarthNet.uav[86] utilizationSecMaintenance 3403.9019812439
scalar OsgEarthNet.uav[86] utilizationSecCharge 37940
scalar OsgEarthNet.uav[86] utilizationSecIdle 211173.28285982
scalar OsgEarthNet.uav[86] utilizationEnergyMission 31198.383766174
scalar OsgEarthNet.uav[86] utilizationEnergyMaintenance 16492.739524841
scalar OsgEarthNet.uav[86] utilizationEnergyCharge 47691.132324219
scalar OsgEarthNet.uav[86] utilizationEnergyOverdrawMission 0
scalar OsgEarthNet.uav[86] utilizationEnergyOverdrawMaintenance 0
scalar OsgEarthNet.uav[86] utilizationCountMissions 10
scalar OsgEarthNet.uav[86] utilizationCountManeuversMission 106
scalar OsgEarthNet.uav[86] utilizationCountManeuversMaintenance 20
scalar OsgEarthNet.uav[86] utilizationCountChargeState 10
scalar OsgEarthNet.uav[86] utilizationCountOverdrawnAfterMission 0
scalar OsgEarthNet.uav[86] utilizationCountIdleState 11
scalar OsgEarthNet.uav[86] utilizationFail 0
scalar OsgEarthNet.uav[86] simulationTime 259200
scalar OsgEarthNet.uav[87] utilizationSecMission 7026.8812484556
scalar OsgEarthNet.uav[87] utilizationSecMaintenance 3977.0507601465
scalar OsgEarthNet.uav[87] utilizationSecCharge 40930
scalar OsgEarthNet.uav[87] utilizationSecIdle 207266.0669914
scalar OsgEarthNet.uav[87] utilizationEnergyMission 32967.352058411
scalar OsgEarthNet.uav[87] utilizationEnergyMaintenance 18698.081710815
scalar OsgEarthNet.uav[87] utilizationEnergyCharge 51665.452636719
scalar OsgEarthNet.uav[87] utilizationEnergyOverdrawMission 0
scalar OsgEarthNet.uav[87] utilizationEnergyOverdrawMaintenance 0
scalar OsgEarthNet.uav[87] utilizationCountMissions 11
scalar OsgEarthNet.uav[87] utilizationCountManeuversMission 120
scalar OsgEarthNet.uav[87] utilizationCountManeuversMaintenance 22
scalar OsgEarthNet.uav[87] utilizationCountChargeState 11
scalar OsgEarthNet.uav[87] utilizationCountOverdrawnAfterMission 0
scalar OsgEarthNet.uav[87] utilizationCountIdleState 10
scalar OsgEarthNet.uav[87] utilizationFail 0
scalar OsgEarthNet.uav[87] simulationTime 259200
scalar OsgEarthNet.uav[88] utilizationSecMission 12582.341235202
scalar OsgEarthNet.uav[88] utilizationSecMaintenance 4473.0769746995
scalar OsgEarthNet.uav[88] utilizationSecCharge 63960
scalar OsgEarthNet.uav[88] utilizationSecIdle 178184.5807901
scalar OsgEarthNet.uav[88] utilizationEnergyMission 58815.931793213
scalar OsgEarthNet.uav[88] utilizationEnergyMaintenance 21403.452159882
scalar OsgEarthNet.uav[88] utilizationEnergyCharge 80138.596679688
scalar OsgEarthNet.uav[88] utilizationEnergyOverdrawMission 0
scalar OsgEarthNet.uav[88] utilizationEnergyOverdrawMaintenance 0
scalar OsgEarthNet.uav[88] utilizationCountMissions 17
scalar OsgEarthNet.uav[88] utilizationCountManeuversMission 193
scalar OsgEarthNet.uav[88] utilizationCountManeuversMaintenance 34
scalar OsgEarthNet.uav[88] utilizationCountChargeState 17
scalar OsgEarthNet.uav[88] utilizationCountOverdrawnAfterMission 0
scalar OsgEarthNet.uav[88] utilizationCountIdleState 18
scalar OsgEarthNet.uav[88] utilizationFail 0
scalar OsgEarthNet.uav[88] simulationTime 259200
scalar OsgEarthNet.uav[89] utilizationSecMission 7028.4306878478
scalar OsgEarthNet.uav[89] utilizationSecMaintenance 4114.6077132257
scalar OsgEarthNet.uav[89] utilizationSecCharge 41430
scalar OsgEarthNet.uav[89] utilizationSecIdle 206626.96059893
scalar OsgEarthNet.uav[89] utilizationEnergyMission 32865.653236389
scalar OsgEarthNet.uav[89] utilizationEnergyMaintenance 19628.710037231
scalar OsgEarthNet.uav[89] utilizationEnergyCharge 52463.998535156
scalar OsgEarthNet.uav[89] utilizationEnergyOverdrawMission 0
scalar OsgEarthNet.uav[89] utilizationEnergyOverdrawMaintenance 30.374015808105
scalar OsgEarthNet.uav[89] utilizationCountMissions 11
scalar OsgEarthNet.uav[89] utilizationCountManeuversMission 117
scalar OsgEarthNet.uav[89] utilizationCountManeuversMaintenance 22
scalar OsgEarthNet.uav[89] utilizationCountChargeState 11
scalar OsgEarthNet.uav[89] utilizationCountOverdrawnAfterMission 1
scalar OsgEarthNet.uav[89] utilizationCountIdleState 11
scalar OsgEarthNet.uav[89] utilizationFail 0
scalar OsgEarthNet.uav[89] simulationTime 259200
scalar OsgEarthNet.uav[90] utilizationSecMission 12018.829662752
scalar OsgEarthNet.uav[90] utilizationSecMaintenance 4994.1794128847
scalar OsgEarthNet.uav[90] utilizationSecCharge 60694.989924363
scalar OsgEarthNet.uav[90] utilizationSecIdle 181492
scalar OsgEarthNet.uav[90] utilizationEnergyMission 56060.969360808
scalar OsgEarthNet.uav[90] utilizationEnergyMaintenance 23829.590099335
scalar OsgEarthNet.uav[90] utilizationEnergyCharge 78076.049560547
scalar OsgEarthNet.uav[90] utilizationEnergyOverdrawMission 0
scalar OsgEarthNet.uav[90] utilizationEnergyOverdrawMaintenance 0
scalar OsgEarthNet.uav[90] utilizationCountMissions 17
scalar OsgEarthNet.uav[90] utilizationCountManeuversMission 200
scalar OsgEarthNet.uav[90] utilizationCountManeuversMaintenance 33
scalar OsgEarthNet.uav[90] utilizationCountChargeState 17
scalar OsgEarthNet.uav[90] utilizationCountOverdrawnAfterMission 0
scalar OsgEarthNet.uav[90] utilizationCountIdleState 12
scalar OsgEarthNet.uav[90] utilizationFail 0
scalar OsgEarthNet.uav[90] simulationTime 259200
scalar OsgEarthNet.uav[91] utilizationSecMission 2848.1994548348
scalar OsgEarthNet.uav[91] utilizationSecMaintenance 1230.205831815
scalar OsgEarthNet.uav[91] utilizationSecCharge 15210
scalar OsgEarthNet.uav[91] utilizationSecIdle 239911.59371335
scalar OsgEarthNet.uav[91] utilizationEnergyMission 13169.383659363
scalar OsgEarthNet.uav[91] utilizationEnergyMaintenance 6025.5903587341
scalar OsgEarthNet.uav[91] utilizationEnergyCharge 19194.978027344
scalar OsgEarthNet.uav[91] utilizationEnergyOverdrawMission 0
scalar OsgEarthNet.uav[91] utilizationEnergyOverdrawMaintenance 0
scalar OsgEarthNet.uav[91] utilizationCountMissions 4
scalar OsgEarthNet.uav[91] utilizationCountManeuversMission 45
scalar OsgEarthNet.uav[91] utilizationCountManeuversMaintenance 8
scalar OsgEarthNet.uav[91] utilizationCountChargeState 4
scalar OsgEarthNet.uav[91] utilizationCountOverdrawnAfterMission 0
scalar OsgEarthNet.uav[91] utilizationCountIdleState 5
scalar OsgEarthNet.uav[91] utilizationFail 0
scalar OsgEarthNet.uav[91] simulationTime 259200
scalar OsgEarthNet.uav[92] utilizationSecMission 42315.904595487
scalar OsgEarthNet.uav[92] utilizationSecMaintenance 13221.728068588
scalar OsgEarthNet.uav[92] utilizationSecCharge 194906.91068252
scalar OsgEarthNet.uav[92] utilizationSecIdle 8755.4556534032
scalar OsgEarthNet.uav[92] utilizationEnergyMission 195655.97032928
scalar OsgEarthNet.uav[92] utilizationEnergyMaintenance 60601.642917633
scalar OsgEarthNet.uav[92] utilizationEnergyCharge 255313.33422852
scalar OsgEarthNet.uav[92] utilizationEnergyOverdrawMission 0
scalar OsgEarthNet.uav[92] utilizationEnergyOverdrawMaintenance 0
scalar OsgEarthNet.uav[92] utilizationCountMissions 54
scalar OsgEarthNet.uav[92] utilizationCountManeuversMission 728
scalar OsgEarthNet.uav[92] utilizationCountManeuversMaintenance 108
scalar OsgEarthNet.uav[92] utilizationCountChargeState 54
scalar OsgEarthNet.uav[92] utilizationCountOverdrawnAfterMission 0
scalar OsgEarthNet.uav[92] utilizationCountIdleState 26
scalar OsgEarthNet.uav[92] utilizationFail 0
scalar OsgEarthNet.uav[92] simulationTime 259200
scalar OsgEarthNet.uav[93] utilizationSecMission 18067.771079462
scalar OsgEarthNet.uav[93] utilizationSecMaintenance 5499.5301783818
scalar OsgEarthNet.uav[93] utilizationSecCharge 85847.77010833
scalar OsgEarthNet.uav[93] utilizationSecIdle 149784.92763383
scalar OsgEarthNet.uav[93] utilizationEnergyMission 82997.281608582
scalar OsgEarthNet.uav[93] utilizationEnergyMaintenance 26960.761302948
scalar OsgEarthNet.uav[93] utilizationEnergyCharge 107260.40722656
scalar OsgEarthNet.uav[93] utilizationEnergyOverdrawMission 0
scalar OsgEarthNet.uav[93] utilizationEnergyOverdrawMaintenance 0
scalar OsgEarthNet.uav[93] utilizationCountMissions 24
scalar OsgEarthNet.uav[93] utilizationCountManeuversMission 275
scalar OsgEarthNet.uav[93] utilizationCountManeuversMaintenance 48
scalar OsgEarthNet.uav[93] utilizationCountChargeState 24
scalar OsgEarthNet.uav[93] utilizationCountOverdrawnAfterMission 0
scalar OsgEarthNet.uav[93] utilizationCountIdleState 24
scalar OsgEarthNet.uav[93] utilizationFail 0
scalar OsgEarthNet.uav[93] simulationTime 259200
scalar OsgEarthNet.uav[94] utilizationSecMission 5974.5722520233
scalar OsgEarthNet.uav[94] utilizationSecMaintenance 3081.1165227134
scalar OsgEarthNet.uav[94] utilizationSecCharge 33620
scalar OsgEarthNet.uav[94] utilizationSecIdle 216524.31022526
scalar OsgEarthNet.uav[94] utilizationEnergyMission 27551.255630493
scalar OsgEarthNet.uav[94] utilizationEnergyMaintenance 14726.395092011
scalar OsgEarthNet.uav[94] utilizationEnergyCharge 42277.658203125
scalar OsgEarthNet.uav[94] utilizationEnergyOverdrawMission 0
scalar OsgEarthNet.uav[94] utilizationEnergyOverdrawMaintenance 0
scalar OsgEarthNet.uav[94] utilizationCountMissions 9
scalar OsgEarthNet.uav[94] utilizationCountManeuversMission 97
scalar OsgEarthNet.uav[94] utilizationCountManeuversMaintenance 18
scalar OsgEarthNet.uav[94] utilizationCountChargeState 9
scalar OsgEarthNet.uav[94] utilizationCountOverdrawnAfterMission 0
scalar OsgEarthNet.uav[94] utilizationCountIdleState 9
scalar OsgEarthNet.uav[94] utilizationFail 0
scalar OsgEarthNet.uav[94] simulationTime 259200
scalar OsgEarthNet.uav[95] utilizationSecMission 23645.051461514
scalar OsgEarthNet.uav[95] utilizationSecMaintenance 8098.9901673745
scalar OsgEarthNet.uav[95] utilizationSecCharge 118190
scalar OsgEarthNet.uav[95] utilizationSecIdle 109265.95737111
scalar OsgEarthNet.uav[95] utilizationEnergyMission 109226.23935417
scalar OsgEarthNet.uav[95] utilizationEnergyMaintenance 39095.49029541
scalar OsgEarthNet.uav[95] utilizationEnergyCharge 148242.43554688
scalar OsgEarthNet.uav[95] utilizationEnergyOverdrawMission 0
scalar OsgEarthNet.uav[95] utilizationEnergyOverdrawMaintenance 0
scalar OsgEarthNet.uav[95] utilizationCountMissions 32
scalar OsgEarthNet.uav[95] utilizationCountManeuversMission 365
scalar OsgEarthNet.uav[95] utilizationCountManeuversMaintenance 63
scalar OsgEarthNet.uav[95] utilizationCountChargeState 32
scalar OsgEarthNet.uav[95] utilizationCountOverdrawnAfterMission 0
scalar OsgEarthNet.uav[95] utilizationCountIdleState 31
scalar OsgEarthNet.uav[95] utilizationFail 0
scalar OsgEarthNet.uav[95] simulationTime 259200
scalar OsgEarthNet.uav[96] utilizationSecMission 6594.3327874062
scalar OsgEarthNet.uav[96] utilizationSecMaintenance 2284.2633265405
scalar OsgEarthNet.uav[96] utilizationSecCharge 33320
scalar OsgEarthNet.uav[96] utilizationSecIdle 217001.40288605
scalar OsgEarthNet.uav[96] utilizationEnergyMission 30561.119522095
scalar OsgEarthNet.uav[96] utilizationEnergyMaintenance 10887.384227753
scalar OsgEarthNet.uav[96] utilizationEnergyCharge 41448.509765625
scalar OsgEarthNet.uav[96] utilizationEnergyOverdrawMission 0
scalar OsgEarthNet.uav[96] utilizationEnergyOverdrawMaintenance 0
scalar OsgEarthNet.uav[96] utilizationCountMissions 9
scalar OsgEarthNet.uav[96] utilizationCountManeuversMission 100
scalar OsgEarthNet.uav[96] utilizationCountManeuversMaintenance 18
scalar OsgEarthNet.uav[96] utilizationCountChargeState 9
scalar OsgEarthNet.uav[96] utilizationCountOverdrawnAfterMission 0
scalar OsgEarthNet.uav[96] utilizationCountIdleState 10
scalar OsgEarthNet.uav[96] utilizationFail 0
scalar OsgEarthNet.uav[96] simulationTime 259200
scalar OsgEarthNet.uav[97] utilizationSecMission 8237.1387693794
scalar OsgEarthNet.uav[97] utilizationSecMaintenance 3594.1090362084
scalar OsgEarthNet.uav[97] utilizationSecCharge 44660
scalar OsgEarthNet.uav[97] utilizationSecIdle 202708.75119441
scalar OsgEarthNet.uav[97] utilizationEnergyMission 38505.461357117
scalar OsgEarthNet.uav[97] utilizationEnergyMaintenance 17080.255702972
scalar OsgEarthNet.uav[97] utilizationEnergyCharge 55585.713867188
scalar OsgEarthNet.uav[97] utilizationEnergyOverdrawMission 0
scalar OsgEarthNet.uav[97] utilizationEnergyOverdrawMaintenance 0
scalar OsgEarthNet.uav[97] utilizationCountMissions 12
scalar OsgEarthNet.uav[97] utilizationCountManeuversMission 130
scalar OsgEarthNet.uav[97] utilizationCountManeuversMaintenance 24
scalar OsgEarthNet.uav[97] utilizationCountChargeState 12
scalar OsgEarthNet.uav[97] utilizationCountOverdrawnAfterMission 0
scalar OsgEarthNet.uav[97] utilizationCountIdleState 13
scalar OsgEarthNet.uav[97] utilizationFail 0
scalar OsgEarthNet.uav[97] simulationTime 259200
scalar OsgEarthNet.uav[98] utilizationSecMission 18985.208392704
scalar OsgEarthNet.uav[98] utilizationSecMaintenance 6489.3501900734
scalar OsgEarthNet.uav[98] utilizationSecCharge 94619.404318453
scalar OsgEarthNet.uav[98] utilizationSecIdle 139106.03609877
scalar OsgEarthNet.uav[98] utilizationEnergyMission 88251.563568115
scalar OsgEarthNet.uav[98] utilizationEnergyMaintenance 30931.754722595
scalar OsgEarthNet.uav[98] utilizationEnergyCharge 118769.71972656
scalar OsgEarthNet.uav[98] utilizationEnergyOverdrawMission 0
scalar OsgEarthNet.uav[98] utilizationEnergyOverdrawMaintenance 0
scalar OsgEarthNet.uav[98] utilizationCountMissions 26
scalar OsgEarthNet.uav[98] utilizationCountManeuversMission 292
scalar OsgEarthNet.uav[98] utilizationCountManeuversMaintenance 52
scalar OsgEarthNet.uav[98] utilizationCountChargeState 26
scalar OsgEarthNet.uav[98] utilizationCountOverdrawnAfterMission 0
scalar OsgEarthNet.uav[98] utilizationCountIdleState 26
scalar OsgEarthNet.uav[98] utilizationFail 0
scalar OsgEarthNet.uav[98] simulationTime 259200
scalar OsgEarthNet.uav[99] utilizationSecMission 9619.4150253452
scalar OsgEarthNet.uav[99] utilizationSecMaintenance 3549.8985461461
scalar OsgEarthNet.uav[99] utilizationSecCharge 48490
scalar OsgEarthNet.uav[99] utilizationSecIdle 197540.68542851
scalar OsgEarthNet.uav[99] utilizationEnergyMission 43768.300102234
scalar OsgEarthNet.uav[99] utilizationEnergyMaintenance 17024.042354584
scalar OsgEarthNet.uav[99] utilizationEnergyCharge 60575.893066406
scalar OsgEarthNet.uav[99] utilizationEnergyOverdrawMission 0
scalar OsgEarthNet.uav[99] utilizationEnergyOverdrawMaintenance 0
scalar OsgEarthNet.uav[99] utilizationCountMissions 13
scalar OsgEarthNet.uav[99] utilizationCountManeuversMission 148
scalar OsgEarthNet.uav[99] utilizationCountManeuversMaintenance 26
scalar OsgEarthNet.uav[99] utilizationCountChargeState 13
scalar OsgEarthNet.uav[99] utilizationCountOverdrawnAfterMission 0
scalar OsgEarthNet.uav[99] utilizationCountIdleState 14
scalar OsgEarthNet.uav[99] utilizationFail 0
scalar OsgEarthNet.uav[99] simulationTime 259200
scalar OsgEarthNet.cs[0] usedPower 5067.54349291
scalar OsgEarthNet.cs[0] chargedPower 5067.54349291
scalar OsgEarthNet.cs[0] chargedMobileNodes 1
scalar OsgEarthNet.cs[0] reservations 1
scalar OsgEarthNet.cs[1] usedPower 992139.3745492
scalar OsgEarthNet.cs[1] chargedPower 992139.3745492
scalar OsgEarthNet.cs[1] chargedMobileNodes 207
scalar OsgEarthNet.cs[1] reservations 211
scalar OsgEarthNet.cs[2] usedPower 3111363.9644862
scalar OsgEarthNet.cs[2] chargedPower 3111363.9644862
scalar OsgEarthNet.cs[2] chargedMobileNodes 281
scalar OsgEarthNet.cs[2] reservations 660
scalar OsgEarthNet.cs[3] usedPower 0
scalar OsgEarthNet.cs[3] chargedPower 0
scalar OsgEarthNet.cs[3] chargedMobileNodes 0
scalar OsgEarthNet.cs[3] reservations 0
scalar OsgEarthNet.cs[4] usedPower 611877.61569317
scalar OsgEarthNet.cs[4] chargedPower 611877.61569317
scalar OsgEarthNet.cs[4] chargedMobileNodes 80
scalar OsgEarthNet.cs[4] reservations 133
scalar OsgEarthNet.cs[5] usedPower 219155.25459386
scalar OsgEarthNet.cs[5] chargedPower 219155.25459386
scalar OsgEarthNet.cs[5] chargedMobileNodes 34
scalar OsgEarthNet.cs[5] reservations 46
scalar OsgEarthNet.cs[6] usedPower 3165300.4748538
scalar OsgEarthNet.cs[6] chargedPower 3165300.4748538
scalar OsgEarthNet.cs[6] chargedMobileNodes 680
scalar OsgEarthNet.cs[6] reservations 688

