version 2
run Szenario_Hotel_Gabelbach-26-20180710-14:28:44-29408
attr configname Szenario_Hotel_Gabelbach
attr datetime 20180710-14:28:44
attr experiment Szenario_Hotel_Gabelbach
attr inifile omnetpp.ini
attr iterationvars "$replM=0, $replSearchM=1"
attr iterationvarsf replM=0,replSearchM=1-
attr measurement "$replM=0, $replSearchM=1"
attr network OsgEarthNet
attr processid 29408
attr repetition 10
attr replication #10
attr resultdir results
attr runnumber 26
attr seedset 26
itervar replM 0
itervar replSearchM 1
param *.osgEarthScene.scene "\"Szenario_Hotel_Gabelbach.earth\""
param *.playgroundLatitude 50.6830269
param *.playgroundLongitude 10.8538055
param *.playgroundWidth 3500m
param *.playgroundHeight 3500m
param *.numUAVs 100
param *.cs[0].posX 3537m
param *.cs[0].posY 965m
param *.cs[0].posZ 538m
param *.cs[1].posX 312m
param *.cs[1].posY 1262m
param *.cs[1].posZ 539m
param *.cs[2].posX 2185m
param *.cs[2].posY 3026m
param *.cs[2].posZ 777m
param *.cs[3].posX 10m
param *.cs[3].posY 2200m
param *.cs[3].posZ 560m
param *.cs[4].posX 750m
param *.cs[4].posY 200m
param *.cs[4].posZ 540m
param *.cs[5].posX 2450m
param *.cs[5].posY 180m
param *.cs[5].posZ 524m
param *.cs[6].posX 3140m
param *.cs[6].posY 1790m
param *.cs[6].posZ 606m
param *.numCSs 7
param *.uav[*].replacementMethod 0
param *.missionControl.replacementSearchMethod 1
param *.*.timeStep 10s
param *.uav[*].commandPreviewCommandCount 20
param *.missionControl.missionFiles "\"missions\\\\Szenario_WB_Hotel_Gabelbach_Mission_Hotel.waypoints,missions\\\\Szenario_WB_Hotel_Gabelbach_Mission_Kickelhahn.waypoints,missions\\\\Szenario_WB_Hotel_Gabelbach_Mission_Ilmenau_Sportplatz.waypoints,missions\\\\Szenario_WB_Hotel_Gabelbach_Mission_Manebach_Mitte.waypoints,missions\\\\Szenario_WB_Hotel_Gabelbach_Mission_Manebach_Sued.waypoints\""
param *.missionControl.missionFiles "\"missions\\\\Szenario_WB_Hotel_Gabelbach_Mission_Hotel.waypoints,missions\\\\Szenario_WB_Hotel_Gabelbach_Mission_Kickelhahn.waypoints,missions\\\\Szenario_WB_Hotel_Gabelbach_Mission_Ilmenau_Sportplatz.waypoints,missions\\\\Szenario_WB_Hotel_Gabelbach_Mission_Manebach_Mitte.waypoints,missions\\\\Szenario_WB_Hotel_Gabelbach_Mission_Manebach_Sued.waypoints,missions\\\\Szenario_WB_Hotel_Gabelbach_Hover_HoheSchlaufe.waypoints,missions\\\\Szenario_WB_Hotel_Gabelbach_Hover_Kickelhahn.waypoints,missions\\\\Szenario_WB_Hotel_Gabelbach_Hover_Gabelbachskopf.waypoints,missions\\\\Szenario_WB_Hotel_Gabelbach_Hover_Dachskopf.waypoints\""
param *.uav[0].startX 3537m
param *.uav[0].startY 965m
param *.uav[0].startZ 539m
param *.uav[1].startX 312m
param *.uav[1].startY 1262m
param *.uav[1].startZ 540m
param *.uav[2].startX 2185m
param *.uav[2].startY 3026m
param *.uav[2].startZ 778m
param *.uav[3].startX 3537m
param *.uav[3].startY 965m
param *.uav[3].startZ 539m
param *.uav[4].startX 312m
param *.uav[4].startY 1262m
param *.uav[4].startZ 540m
param *.uav[5].startX 2185m
param *.uav[5].startY 3026m
param *.uav[5].startZ 778m
param *.uav[6].startX 3537m
param *.uav[6].startY 965m
param *.uav[6].startZ 539m
param *.uav[7].startX 312m
param *.uav[7].startY 1262m
param *.uav[7].startZ 540m
param *.uav[8].startX 2185m
param *.uav[8].startY 3026m
param *.uav[8].startZ 778m
param *.uav[9].startX 3537m
param *.uav[9].startY 965m
param *.uav[9].startZ 539m
param *.uav[10].startX 3537m
param *.uav[10].startY 965m
param *.uav[10].startZ 539m
param *.uav[11].startX 312m
param *.uav[11].startY 1262m
param *.uav[11].startZ 540m
param *.uav[12].startX 2185m
param *.uav[12].startY 3026m
param *.uav[12].startZ 778m
param *.uav[13].startX 3537m
param *.uav[13].startY 965m
param *.uav[13].startZ 539m
param *.uav[14].startX 312m
param *.uav[14].startY 1262m
param *.uav[14].startZ 540m
param *.uav[15].startX 2185m
param *.uav[15].startY 3026m
param *.uav[15].startZ 778m
param *.uav[16].startX 3537m
param *.uav[16].startY 965m
param *.uav[16].startZ 539m
param *.uav[17].startX 312m
param *.uav[17].startY 1262m
param *.uav[17].startZ 540m
param *.uav[18].startX 2185m
param *.uav[18].startY 3026m
param *.uav[18].startZ 778m
param *.uav[19].startX 3537m
param *.uav[19].startY 965m
param *.uav[19].startZ 539m
param *.uav[20].startX 3537m
param *.uav[20].startY 965m
param *.uav[20].startZ 539m
param *.uav[21].startX 312m
param *.uav[21].startY 1262m
param *.uav[21].startZ 540m
param *.uav[22].startX 2185m
param *.uav[22].startY 3026m
param *.uav[22].startZ 778m
param *.uav[23].startX 3537m
param *.uav[23].startY 965m
param *.uav[23].startZ 539m
param *.uav[24].startX 312m
param *.uav[24].startY 1262m
param *.uav[24].startZ 540m
param *.uav[25].startX 2185m
param *.uav[25].startY 3026m
param *.uav[25].startZ 778m
param *.uav[26].startX 3537m
param *.uav[26].startY 965m
param *.uav[26].startZ 539m
param *.uav[27].startX 312m
param *.uav[27].startY 1262m
param *.uav[27].startZ 540m
param *.uav[28].startX 2185m
param *.uav[28].startY 3026m
param *.uav[28].startZ 778m
param *.uav[29].startX 3537m
param *.uav[29].startY 965m
param *.uav[29].startZ 539m
param *.uav[30].startX 3537m
param *.uav[30].startY 965m
param *.uav[30].startZ 539m
param *.uav[31].startX 312m
param *.uav[31].startY 1262m
param *.uav[31].startZ 540m
param *.uav[32].startX 2185m
param *.uav[32].startY 3026m
param *.uav[32].startZ 778m
param *.uav[33].startX 3537m
param *.uav[33].startY 965m
param *.uav[33].startZ 539m
param *.uav[34].startX 312m
param *.uav[34].startY 1262m
param *.uav[34].startZ 540m
param *.uav[35].startX 2185m
param *.uav[35].startY 3026m
param *.uav[35].startZ 778m
param *.uav[36].startX 3537m
param *.uav[36].startY 965m
param *.uav[36].startZ 539m
param *.uav[37].startX 312m
param *.uav[37].startY 1262m
param *.uav[37].startZ 540m
param *.uav[38].startX 2185m
param *.uav[38].startY 3026m
param *.uav[38].startZ 778m
param *.uav[39].startX 3537m
param *.uav[39].startY 965m
param *.uav[39].startZ 539m
param *.uav[40].startX 3537m
param *.uav[40].startY 965m
param *.uav[40].startZ 539m
param *.uav[41].startX 312m
param *.uav[41].startY 1262m
param *.uav[41].startZ 540m
param *.uav[42].startX 2185m
param *.uav[42].startY 3026m
param *.uav[42].startZ 778m
param *.uav[43].startX 3537m
param *.uav[43].startY 965m
param *.uav[43].startZ 539m
param *.uav[44].startX 312m
param *.uav[44].startY 1262m
param *.uav[44].startZ 540m
param *.uav[45].startX 2185m
param *.uav[45].startY 3026m
param *.uav[45].startZ 778m
param *.uav[46].startX 3537m
param *.uav[46].startY 965m
param *.uav[46].startZ 539m
param *.uav[47].startX 312m
param *.uav[47].startY 1262m
param *.uav[47].startZ 540m
param *.uav[48].startX 2185m
param *.uav[48].startY 3026m
param *.uav[48].startZ 778m
param *.uav[49].startX 3537m
param *.uav[49].startY 965m
param *.uav[49].startZ 539m
param *.uav[50].startX 3537m
param *.uav[50].startY 965m
param *.uav[50].startZ 539m
param *.uav[51].startX 312m
param *.uav[51].startY 1262m
param *.uav[51].startZ 540m
param *.uav[52].startX 2185m
param *.uav[52].startY 3026m
param *.uav[52].startZ 778m
param *.uav[53].startX 3537m
param *.uav[53].startY 965m
param *.uav[53].startZ 539m
param *.uav[54].startX 312m
param *.uav[54].startY 1262m
param *.uav[54].startZ 540m
param *.uav[55].startX 2185m
param *.uav[55].startY 3026m
param *.uav[55].startZ 778m
param *.uav[56].startX 3537m
param *.uav[56].startY 965m
param *.uav[56].startZ 539m
param *.uav[57].startX 312m
param *.uav[57].startY 1262m
param *.uav[57].startZ 540m
param *.uav[58].startX 2185m
param *.uav[58].startY 3026m
param *.uav[58].startZ 778m
param *.uav[59].startX 3537m
param *.uav[59].startY 965m
param *.uav[59].startZ 539m
param *.uav[60].startX 3537m
param *.uav[60].startY 965m
param *.uav[60].startZ 539m
param *.uav[61].startX 312m
param *.uav[61].startY 1262m
param *.uav[61].startZ 540m
param *.uav[62].startX 2185m
param *.uav[62].startY 3026m
param *.uav[62].startZ 778m
param *.uav[63].startX 3537m
param *.uav[63].startY 965m
param *.uav[63].startZ 539m
param *.uav[64].startX 312m
param *.uav[64].startY 1262m
param *.uav[64].startZ 540m
param *.uav[65].startX 2185m
param *.uav[65].startY 3026m
param *.uav[65].startZ 778m
param *.uav[66].startX 3537m
param *.uav[66].startY 965m
param *.uav[66].startZ 539m
param *.uav[67].startX 312m
param *.uav[67].startY 1262m
param *.uav[67].startZ 540m
param *.uav[68].startX 2185m
param *.uav[68].startY 3026m
param *.uav[68].startZ 778m
param *.uav[69].startX 3537m
param *.uav[69].startY 965m
param *.uav[69].startZ 539m
param *.uav[70].startX 3537m
param *.uav[70].startY 965m
param *.uav[70].startZ 539m
param *.uav[71].startX 312m
param *.uav[71].startY 1262m
param *.uav[71].startZ 540m
param *.uav[72].startX 2185m
param *.uav[72].startY 3026m
param *.uav[72].startZ 778m
param *.uav[73].startX 3537m
param *.uav[73].startY 965m
param *.uav[73].startZ 539m
param *.uav[74].startX 312m
param *.uav[74].startY 1262m
param *.uav[74].startZ 540m
param *.uav[75].startX 2185m
param *.uav[75].startY 3026m
param *.uav[75].startZ 778m
param *.uav[76].startX 3537m
param *.uav[76].startY 965m
param *.uav[76].startZ 539m
param *.uav[77].startX 312m
param *.uav[77].startY 1262m
param *.uav[77].startZ 540m
param *.uav[78].startX 2185m
param *.uav[78].startY 3026m
param *.uav[78].startZ 778m
param *.uav[79].startX 3537m
param *.uav[79].startY 965m
param *.uav[79].startZ 539m
param *.uav[80].startX 3537m
param *.uav[80].startY 965m
param *.uav[80].startZ 539m
param *.uav[81].startX 312m
param *.uav[81].startY 1262m
param *.uav[81].startZ 540m
param *.uav[82].startX 2185m
param *.uav[82].startY 3026m
param *.uav[82].startZ 778m
param *.uav[83].startX 3537m
param *.uav[83].startY 965m
param *.uav[83].startZ 539m
param *.uav[84].startX 312m
param *.uav[84].startY 1262m
param *.uav[84].startZ 540m
param *.uav[85].startX 2185m
param *.uav[85].startY 3026m
param *.uav[85].startZ 778m
param *.uav[86].startX 3537m
param *.uav[86].startY 965m
param *.uav[86].startZ 539m
param *.uav[87].startX 312m
param *.uav[87].startY 1262m
param *.uav[87].startZ 540m
param *.uav[88].startX 2185m
param *.uav[88].startY 3026m
param *.uav[88].startZ 778m
param *.uav[89].startX 3537m
param *.uav[89].startY 965m
param *.uav[89].startZ 539m
param *.uav[90].startX 3537m
param *.uav[90].startY 965m
param *.uav[90].startZ 539m
param *.uav[91].startX 312m
param *.uav[91].startY 1262m
param *.uav[91].startZ 540m
param *.uav[92].startX 2185m
param *.uav[92].startY 3026m
param *.uav[92].startZ 778m
param *.uav[93].startX 3537m
param *.uav[93].startY 965m
param *.uav[93].startZ 539m
param *.uav[94].startX 312m
param *.uav[94].startY 1262m
param *.uav[94].startZ 540m
param *.uav[95].startX 2185m
param *.uav[95].startY 3026m
param *.uav[95].startZ 778m
param *.uav[96].startX 3537m
param *.uav[96].startY 965m
param *.uav[96].startZ 539m
param *.uav[97].startX 312m
param *.uav[97].startY 1262m
param *.uav[97].startZ 540m
param *.uav[98].startX 2185m
param *.uav[98].startY 3026m
param *.uav[98].startZ 778m
param *.uav[99].startX 3537m
param *.uav[99].startY 965m
param *.uav[99].startZ 539m
param *.osgEarthScene.scene "\"boston.earth\""
param *.playgroundLatitude 42.3558
param *.playgroundLongitude -71.0677
param *.playgroundWidth 400m
param *.playgroundHeight 200m
param *.channelController.connectionColor "\"#0000FF40\""
param *.channelController.showConnections false
param *.uav[*].modelURL "\"quadrocopter.small.obj.15.scale.0,0,90.rot\""
param *.uav[*].labelColor "\"#FF7C00CC\""
param *.uav[*].label2Color "\"#FF7C00EE\""
param *.uav[*].batteryCapacity 5200mAh
param *.uav[*].batteryRemaining uav[index].batteryCapacity
param *.uav[*].predictionQuantile 0.95
param *.uav[*].replacementMethod 2
param *.uav[*].weightedSumWeight 0.5
param *.cs[*].modelURL "\"chargingstation_v1.osgt.2.scale.0,0,0.rot.0,0,-15e-1.trans\""
param *.cs[*].spotsWaiting 999
param *.cs[*].spotsCharging 999
param *.cs[*].chargeEffectivenessPercentage 100
param *.cs[*].nonLinearPhaseStartPercentage 85
param *.cs[*].chargeCurrent 6.0A
param *.cs[*].prioritizeFastCharge true
param *.missionControl.replacementSearchMethod 0
param *.*.timeStep 9s

scalar OsgEarthNet.uav[0] utilizationSecMission 12532.782770546
scalar OsgEarthNet.uav[0] utilizationSecMaintenance 3824.3842253101
scalar OsgEarthNet.uav[0] utilizationSecCharge 59699.138237794
scalar OsgEarthNet.uav[0] utilizationSecIdle 183143.69376635
scalar OsgEarthNet.uav[0] utilizationEnergyMission 58975.105178833
scalar OsgEarthNet.uav[0] utilizationEnergyMaintenance 18535.46446991
scalar OsgEarthNet.uav[0] utilizationEnergyCharge 75081.128417969
scalar OsgEarthNet.uav[0] utilizationEnergyOverdrawMission 0
scalar OsgEarthNet.uav[0] utilizationEnergyOverdrawMaintenance 0
scalar OsgEarthNet.uav[0] utilizationCountMissions 17
scalar OsgEarthNet.uav[0] utilizationCountManeuversMission 192
scalar OsgEarthNet.uav[0] utilizationCountManeuversMaintenance 34
scalar OsgEarthNet.uav[0] utilizationCountChargeState 17
scalar OsgEarthNet.uav[0] utilizationCountOverdrawnAfterMission 0
scalar OsgEarthNet.uav[0] utilizationCountIdleState 14
scalar OsgEarthNet.uav[0] utilizationFail 0
scalar OsgEarthNet.uav[0] simulationTime 259200
scalar OsgEarthNet.uav[1] utilizationSecMission 655.55330183502
scalar OsgEarthNet.uav[1] utilizationSecMaintenance 334.5505930207
scalar OsgEarthNet.uav[1] utilizationSecCharge 3820
scalar OsgEarthNet.uav[1] utilizationSecIdle 254389.89510514
scalar OsgEarthNet.uav[1] utilizationEnergyMission 3093.4066467285
scalar OsgEarthNet.uav[1] utilizationEnergyMaintenance 1690.3985099792
scalar OsgEarthNet.uav[1] utilizationEnergyCharge 4783.8032226562
scalar OsgEarthNet.uav[1] utilizationEnergyOverdrawMission 0
scalar OsgEarthNet.uav[1] utilizationEnergyOverdrawMaintenance 0
scalar OsgEarthNet.uav[1] utilizationCountMissions 1
scalar OsgEarthNet.uav[1] utilizationCountManeuversMission 10
scalar OsgEarthNet.uav[1] utilizationCountManeuversMaintenance 2
scalar OsgEarthNet.uav[1] utilizationCountChargeState 1
scalar OsgEarthNet.uav[1] utilizationCountOverdrawnAfterMission 0
scalar OsgEarthNet.uav[1] utilizationCountIdleState 2
scalar OsgEarthNet.uav[1] utilizationFail 0
scalar OsgEarthNet.uav[1] simulationTime 259200
scalar OsgEarthNet.uav[2] utilizationSecMission 887.1741082606
scalar OsgEarthNet.uav[2] utilizationSecMaintenance 181.20511066264
scalar OsgEarthNet.uav[2] utilizationSecCharge 3790
scalar OsgEarthNet.uav[2] utilizationSecIdle 254341.61978108
scalar OsgEarthNet.uav[2] utilizationEnergyMission 4151.6309967041
scalar OsgEarthNet.uav[2] utilizationEnergyMaintenance 764.86793136597
scalar OsgEarthNet.uav[2] utilizationEnergyCharge 4797.3510742188
scalar OsgEarthNet.uav[2] utilizationEnergyOverdrawMission 0
scalar OsgEarthNet.uav[2] utilizationEnergyOverdrawMaintenance 0
scalar OsgEarthNet.uav[2] utilizationCountMissions 1
scalar OsgEarthNet.uav[2] utilizationCountManeuversMission 14
scalar OsgEarthNet.uav[2] utilizationCountManeuversMaintenance 2
scalar OsgEarthNet.uav[2] utilizationCountChargeState 1
scalar OsgEarthNet.uav[2] utilizationCountOverdrawnAfterMission 0
scalar OsgEarthNet.uav[2] utilizationCountIdleState 2
scalar OsgEarthNet.uav[2] utilizationFail 0
scalar OsgEarthNet.uav[2] simulationTime 259200
scalar OsgEarthNet.uav[3] utilizationSecMission 1930.3801521507
scalar OsgEarthNet.uav[3] utilizationSecMaintenance 1005.5942788863
scalar OsgEarthNet.uav[3] utilizationSecCharge 11120
scalar OsgEarthNet.uav[3] utilizationSecIdle 245144.02456896
scalar OsgEarthNet.uav[3] utilizationEnergyMission 9155.4426727295
scalar OsgEarthNet.uav[3] utilizationEnergyMaintenance 4706.6784515381
scalar OsgEarthNet.uav[3] utilizationEnergyCharge 13862.120117188
scalar OsgEarthNet.uav[3] utilizationEnergyOverdrawMission 0
scalar OsgEarthNet.uav[3] utilizationEnergyOverdrawMaintenance 0
scalar OsgEarthNet.uav[3] utilizationCountMissions 3
scalar OsgEarthNet.uav[3] utilizationCountManeuversMission 31
scalar OsgEarthNet.uav[3] utilizationCountManeuversMaintenance 6
scalar OsgEarthNet.uav[3] utilizationCountChargeState 3
scalar OsgEarthNet.uav[3] utilizationCountOverdrawnAfterMission 0
scalar OsgEarthNet.uav[3] utilizationCountIdleState 4
scalar OsgEarthNet.uav[3] utilizationFail 0
scalar OsgEarthNet.uav[3] simulationTime 259200
scalar OsgEarthNet.uav[4] utilizationSecMission 2657.6925779339
scalar OsgEarthNet.uav[4] utilizationSecMaintenance 1372.600357025
scalar OsgEarthNet.uav[4] utilizationSecCharge 14550
scalar OsgEarthNet.uav[4] utilizationSecIdle 240619.70606504
scalar OsgEarthNet.uav[4] utilizationEnergyMission 12359.595809936
scalar OsgEarthNet.uav[4] utilizationEnergyMaintenance 6595.3873138428
scalar OsgEarthNet.uav[4] utilizationEnergyCharge 18954.983886719
scalar OsgEarthNet.uav[4] utilizationEnergyOverdrawMission 0
scalar OsgEarthNet.uav[4] utilizationEnergyOverdrawMaintenance 0
scalar OsgEarthNet.uav[4] utilizationCountMissions 4
scalar OsgEarthNet.uav[4] utilizationCountManeuversMission 45
scalar OsgEarthNet.uav[4] utilizationCountManeuversMaintenance 7
scalar OsgEarthNet.uav[4] utilizationCountChargeState 4
scalar OsgEarthNet.uav[4] utilizationCountOverdrawnAfterMission 0
scalar OsgEarthNet.uav[4] utilizationCountIdleState 3
scalar OsgEarthNet.uav[4] utilizationFail 0
scalar OsgEarthNet.uav[4] simulationTime 259200
scalar OsgEarthNet.uav[5] utilizationSecMission 22389.210180481
scalar OsgEarthNet.uav[5] utilizationSecMaintenance 7399.1030379013
scalar OsgEarthNet.uav[5] utilizationSecCharge 109960
scalar OsgEarthNet.uav[5] utilizationSecIdle 119451.68578162
scalar OsgEarthNet.uav[5] utilizationEnergyMission 103704.60227556
scalar OsgEarthNet.uav[5] utilizationEnergyMaintenance 33734.690792084
scalar OsgEarthNet.uav[5] utilizationEnergyCharge 138232.12548828
scalar OsgEarthNet.uav[5] utilizationEnergyOverdrawMission 0
scalar OsgEarthNet.uav[5] utilizationEnergyOverdrawMaintenance 0
scalar OsgEarthNet.uav[5] utilizationCountMissions 29
scalar OsgEarthNet.uav[5] utilizationCountManeuversMission 379
scalar OsgEarthNet.uav[5] utilizationCountManeuversMaintenance 57
scalar OsgEarthNet.uav[5] utilizationCountChargeState 29
scalar OsgEarthNet.uav[5] utilizationCountOverdrawnAfterMission 0
scalar OsgEarthNet.uav[5] utilizationCountIdleState 30
scalar OsgEarthNet.uav[5] utilizationFail 0
scalar OsgEarthNet.uav[5] simulationTime 259200
scalar OsgEarthNet.uav[6] utilizationSecMission 8077.2607805883
scalar OsgEarthNet.uav[6] utilizationSecMaintenance 2918.1610372283
scalar OsgEarthNet.uav[6] utilizationSecCharge 38664.621894408
scalar OsgEarthNet.uav[6] utilizationSecIdle 209539.95528778
scalar OsgEarthNet.uav[6] utilizationEnergyMission 36628.775970459
scalar OsgEarthNet.uav[6] utilizationEnergyMaintenance 14030.237167358
scalar OsgEarthNet.uav[6] utilizationEnergyCharge 48863.056396484
scalar OsgEarthNet.uav[6] utilizationEnergyOverdrawMission 0
scalar OsgEarthNet.uav[6] utilizationEnergyOverdrawMaintenance 0
scalar OsgEarthNet.uav[6] utilizationCountMissions 11
scalar OsgEarthNet.uav[6] utilizationCountManeuversMission 126
scalar OsgEarthNet.uav[6] utilizationCountManeuversMaintenance 22
scalar OsgEarthNet.uav[6] utilizationCountChargeState 11
scalar OsgEarthNet.uav[6] utilizationCountOverdrawnAfterMission 0
scalar OsgEarthNet.uav[6] utilizationCountIdleState 11
scalar OsgEarthNet.uav[6] utilizationFail 0
scalar OsgEarthNet.uav[6] simulationTime 259200
scalar OsgEarthNet.uav[7] utilizationSecMission 3339.6022180748
scalar OsgEarthNet.uav[7] utilizationSecMaintenance 1745.4632970532
scalar OsgEarthNet.uav[7] utilizationSecCharge 18850
scalar OsgEarthNet.uav[7] utilizationSecIdle 235264.93348487
scalar OsgEarthNet.uav[7] utilizationEnergyMission 15230.112251282
scalar OsgEarthNet.uav[7] utilizationEnergyMaintenance 8505.3180007935
scalar OsgEarthNet.uav[7] utilizationEnergyCharge 23735.438964844
scalar OsgEarthNet.uav[7] utilizationEnergyOverdrawMission 0
scalar OsgEarthNet.uav[7] utilizationEnergyOverdrawMaintenance 0
scalar OsgEarthNet.uav[7] utilizationCountMissions 5
scalar OsgEarthNet.uav[7] utilizationCountManeuversMission 55
scalar OsgEarthNet.uav[7] utilizationCountManeuversMaintenance 10
scalar OsgEarthNet.uav[7] utilizationCountChargeState 5
scalar OsgEarthNet.uav[7] utilizationCountOverdrawnAfterMission 0
scalar OsgEarthNet.uav[7] utilizationCountIdleState 6
scalar OsgEarthNet.uav[7] utilizationFail 0
scalar OsgEarthNet.uav[7] simulationTime 259200
scalar OsgEarthNet.uav[8] utilizationSecMission 18044.531017252
scalar OsgEarthNet.uav[8] utilizationSecMaintenance 5070.8864148483
scalar OsgEarthNet.uav[8] utilizationSecCharge 84040
scalar OsgEarthNet.uav[8] utilizationSecIdle 152044.5815679
scalar OsgEarthNet.uav[8] utilizationEnergyMission 82828.747268677
scalar OsgEarthNet.uav[8] utilizationEnergyMaintenance 22657.227771759
scalar OsgEarthNet.uav[8] utilizationEnergyCharge 105848.51953125
scalar OsgEarthNet.uav[8] utilizationEnergyOverdrawMission 0
scalar OsgEarthNet.uav[8] utilizationEnergyOverdrawMaintenance 0
scalar OsgEarthNet.uav[8] utilizationCountMissions 22
scalar OsgEarthNet.uav[8] utilizationCountManeuversMission 298
scalar OsgEarthNet.uav[8] utilizationCountManeuversMaintenance 44
scalar OsgEarthNet.uav[8] utilizationCountChargeState 22
scalar OsgEarthNet.uav[8] utilizationCountOverdrawnAfterMission 0
scalar OsgEarthNet.uav[8] utilizationCountIdleState 23
scalar OsgEarthNet.uav[8] utilizationFail 0
scalar OsgEarthNet.uav[8] simulationTime 259200
scalar OsgEarthNet.uav[9] utilizationSecMission 14347.673648005
scalar OsgEarthNet.uav[9] utilizationSecMaintenance 4516.7467084141
scalar OsgEarthNet.uav[9] utilizationSecCharge 69670
scalar OsgEarthNet.uav[9] utilizationSecIdle 170665.57864358
scalar OsgEarthNet.uav[9] utilizationEnergyMission 66235.38633728
scalar OsgEarthNet.uav[9] utilizationEnergyMaintenance 22221.486940365
scalar OsgEarthNet.uav[9] utilizationEnergyCharge 88234.1171875
scalar OsgEarthNet.uav[9] utilizationEnergyOverdrawMission 0
scalar OsgEarthNet.uav[9] utilizationEnergyOverdrawMaintenance 0
scalar OsgEarthNet.uav[9] utilizationCountMissions 19
scalar OsgEarthNet.uav[9] utilizationCountManeuversMission 218
scalar OsgEarthNet.uav[9] utilizationCountManeuversMaintenance 39
scalar OsgEarthNet.uav[9] utilizationCountChargeState 19
scalar OsgEarthNet.uav[9] utilizationCountOverdrawnAfterMission 0
scalar OsgEarthNet.uav[9] utilizationCountIdleState 13
scalar OsgEarthNet.uav[9] utilizationFail 0
scalar OsgEarthNet.uav[9] simulationTime 259200
scalar OsgEarthNet.uav[10] utilizationSecMission 7183.6536144963
scalar OsgEarthNet.uav[10] utilizationSecMaintenance 2951.5241503643
scalar OsgEarthNet.uav[10] utilizationSecCharge 37580
scalar OsgEarthNet.uav[10] utilizationSecIdle 211484.82123514
scalar OsgEarthNet.uav[10] utilizationEnergyMission 33096.868972778
scalar OsgEarthNet.uav[10] utilizationEnergyMaintenance 14101.285507202
scalar OsgEarthNet.uav[10] utilizationEnergyCharge 47198.157226562
scalar OsgEarthNet.uav[10] utilizationEnergyOverdrawMission 0
scalar OsgEarthNet.uav[10] utilizationEnergyOverdrawMaintenance 0
scalar OsgEarthNet.uav[10] utilizationCountMissions 10
scalar OsgEarthNet.uav[10] utilizationCountManeuversMission 110
scalar OsgEarthNet.uav[10] utilizationCountManeuversMaintenance 20
scalar OsgEarthNet.uav[10] utilizationCountChargeState 10
scalar OsgEarthNet.uav[10] utilizationCountOverdrawnAfterMission 0
scalar OsgEarthNet.uav[10] utilizationCountIdleState 11
scalar OsgEarthNet.uav[10] utilizationFail 0
scalar OsgEarthNet.uav[10] simulationTime 259200
scalar OsgEarthNet.uav[11] utilizationSecMission 2009.557191207
scalar OsgEarthNet.uav[11] utilizationSecMaintenance 981.10310736905
scalar OsgEarthNet.uav[11] utilizationSecCharge 11290
scalar OsgEarthNet.uav[11] utilizationSecIdle 244919.33870142
scalar OsgEarthNet.uav[11] utilizationEnergyMission 9263.1016998291
scalar OsgEarthNet.uav[11] utilizationEnergyMaintenance 4882.8367347717
scalar OsgEarthNet.uav[11] utilizationEnergyCharge 14145.942871094
scalar OsgEarthNet.uav[11] utilizationEnergyOverdrawMission 0
scalar OsgEarthNet.uav[11] utilizationEnergyOverdrawMaintenance 0
scalar OsgEarthNet.uav[11] utilizationCountMissions 3
scalar OsgEarthNet.uav[11] utilizationCountManeuversMission 31
scalar OsgEarthNet.uav[11] utilizationCountManeuversMaintenance 6
scalar OsgEarthNet.uav[11] utilizationCountChargeState 3
scalar OsgEarthNet.uav[11] utilizationCountOverdrawnAfterMission 0
scalar OsgEarthNet.uav[11] utilizationCountIdleState 4
scalar OsgEarthNet.uav[11] utilizationFail 0
scalar OsgEarthNet.uav[11] simulationTime 259200
scalar OsgEarthNet.uav[12] utilizationSecMission 12177.163335751
scalar OsgEarthNet.uav[12] utilizationSecMaintenance 5781.1297252563
scalar OsgEarthNet.uav[12] utilizationSecCharge 66640
scalar OsgEarthNet.uav[12] utilizationSecIdle 174601.70593899
scalar OsgEarthNet.uav[12] utilizationEnergyMission 56238.397453308
scalar OsgEarthNet.uav[12] utilizationEnergyMaintenance 27009.216209412
scalar OsgEarthNet.uav[12] utilizationEnergyCharge 83247.616210938
scalar OsgEarthNet.uav[12] utilizationEnergyOverdrawMission 0
scalar OsgEarthNet.uav[12] utilizationEnergyOverdrawMaintenance 0
scalar OsgEarthNet.uav[12] utilizationCountMissions 18
scalar OsgEarthNet.uav[12] utilizationCountManeuversMission 201
scalar OsgEarthNet.uav[12] utilizationCountManeuversMaintenance 36
scalar OsgEarthNet.uav[12] utilizationCountChargeState 18
scalar OsgEarthNet.uav[12] utilizationCountOverdrawnAfterMission 0
scalar OsgEarthNet.uav[12] utilizationCountIdleState 17
scalar OsgEarthNet.uav[12] utilizationFail 0
scalar OsgEarthNet.uav[12] simulationTime 259200
scalar OsgEarthNet.uav[13] utilizationSecMission 9673.3193997917
scalar OsgEarthNet.uav[13] utilizationSecMaintenance 3368.4333427792
scalar OsgEarthNet.uav[13] utilizationSecCharge 48030
scalar OsgEarthNet.uav[13] utilizationSecIdle 198128.24625743
scalar OsgEarthNet.uav[13] utilizationEnergyMission 43602.277050018
scalar OsgEarthNet.uav[13] utilizationEnergyMaintenance 16283.414710999
scalar OsgEarthNet.uav[13] utilizationEnergyCharge 59781.048339844
scalar OsgEarthNet.uav[13] utilizationEnergyOverdrawMission 0
scalar OsgEarthNet.uav[13] utilizationEnergyOverdrawMaintenance 0
scalar OsgEarthNet.uav[13] utilizationCountMissions 13
scalar OsgEarthNet.uav[13] utilizationCountManeuversMission 150
scalar OsgEarthNet.uav[13] utilizationCountManeuversMaintenance 26
scalar OsgEarthNet.uav[13] utilizationCountChargeState 13
scalar OsgEarthNet.uav[13] utilizationCountOverdrawnAfterMission 0
scalar OsgEarthNet.uav[13] utilizationCountIdleState 14
scalar OsgEarthNet.uav[13] utilizationFail 0
scalar OsgEarthNet.uav[13] simulationTime 259200
scalar OsgEarthNet.uav[14] utilizationSecMission 11183.986725964
scalar OsgEarthNet.uav[14] utilizationSecMaintenance 5679.8703696075
scalar OsgEarthNet.uav[14] utilizationSecCharge 59807.715105804
scalar OsgEarthNet.uav[14] utilizationSecIdle 182528.42679863
scalar OsgEarthNet.uav[14] utilizationEnergyMission 51563.927833557
scalar OsgEarthNet.uav[14] utilizationEnergyMaintenance 26567.716545105
scalar OsgEarthNet.uav[14] utilizationEnergyCharge 75615.973632812
scalar OsgEarthNet.uav[14] utilizationEnergyOverdrawMission 0
scalar OsgEarthNet.uav[14] utilizationEnergyOverdrawMaintenance 0
scalar OsgEarthNet.uav[14] utilizationCountMissions 17
scalar OsgEarthNet.uav[14] utilizationCountManeuversMission 191
scalar OsgEarthNet.uav[14] utilizationCountManeuversMaintenance 34
scalar OsgEarthNet.uav[14] utilizationCountChargeState 17
scalar OsgEarthNet.uav[14] utilizationCountOverdrawnAfterMission 0
scalar OsgEarthNet.uav[14] utilizationCountIdleState 13
scalar OsgEarthNet.uav[14] utilizationFail 0
scalar OsgEarthNet.uav[14] simulationTime 259200
scalar OsgEarthNet.uav[15] utilizationSecMission 13711.57833043
scalar OsgEarthNet.uav[15] utilizationSecMaintenance 3987.1062152291
scalar OsgEarthNet.uav[15] utilizationSecCharge 64818.37427651
scalar OsgEarthNet.uav[15] utilizationSecIdle 176682.94017783
scalar OsgEarthNet.uav[15] utilizationEnergyMission 63343.133426666
scalar OsgEarthNet.uav[15] utilizationEnergyMaintenance 18508.878482819
scalar OsgEarthNet.uav[15] utilizationEnergyCharge 81665.972167969
scalar OsgEarthNet.uav[15] utilizationEnergyOverdrawMission 0
scalar OsgEarthNet.uav[15] utilizationEnergyOverdrawMaintenance 0
scalar OsgEarthNet.uav[15] utilizationCountMissions 17
scalar OsgEarthNet.uav[15] utilizationCountManeuversMission 232
scalar OsgEarthNet.uav[15] utilizationCountManeuversMaintenance 34
scalar OsgEarthNet.uav[15] utilizationCountChargeState 17
scalar OsgEarthNet.uav[15] utilizationCountOverdrawnAfterMission 0
scalar OsgEarthNet.uav[15] utilizationCountIdleState 17
scalar OsgEarthNet.uav[15] utilizationFail 0
scalar OsgEarthNet.uav[15] simulationTime 259200
scalar OsgEarthNet.uav[16] utilizationSecMission 7171.2133572064
scalar OsgEarthNet.uav[16] utilizationSecMaintenance 3930.5571533272
scalar OsgEarthNet.uav[16] utilizationSecCharge 41590
scalar OsgEarthNet.uav[16] utilizationSecIdle 206508.22848947
scalar OsgEarthNet.uav[16] utilizationEnergyMission 33987.00604248
scalar OsgEarthNet.uav[16] utilizationEnergyMaintenance 18588.087467194
scalar OsgEarthNet.uav[16] utilizationEnergyCharge 52575.076660156
scalar OsgEarthNet.uav[16] utilizationEnergyOverdrawMission 0
scalar OsgEarthNet.uav[16] utilizationEnergyOverdrawMaintenance 0
scalar OsgEarthNet.uav[16] utilizationCountMissions 11
scalar OsgEarthNet.uav[16] utilizationCountManeuversMission 121
scalar OsgEarthNet.uav[16] utilizationCountManeuversMaintenance 22
scalar OsgEarthNet.uav[16] utilizationCountChargeState 11
scalar OsgEarthNet.uav[16] utilizationCountOverdrawnAfterMission 0
scalar OsgEarthNet.uav[16] utilizationCountIdleState 11
scalar OsgEarthNet.uav[16] utilizationFail 0
scalar OsgEarthNet.uav[16] simulationTime 259200
scalar OsgEarthNet.uav[17] utilizationSecMission 3313.520889487
scalar OsgEarthNet.uav[17] utilizationSecMaintenance 1797.6915333292
scalar OsgEarthNet.uav[17] utilizationSecCharge 19220
scalar OsgEarthNet.uav[17] utilizationSecIdle 234868.78657718
scalar OsgEarthNet.uav[17] utilizationEnergyMission 15652.938751221
scalar OsgEarthNet.uav[17] utilizationEnergyMaintenance 8597.9124832153
scalar OsgEarthNet.uav[17] utilizationEnergyCharge 24250.865234375
scalar OsgEarthNet.uav[17] utilizationEnergyOverdrawMission 0
scalar OsgEarthNet.uav[17] utilizationEnergyOverdrawMaintenance 0
scalar OsgEarthNet.uav[17] utilizationCountMissions 5
scalar OsgEarthNet.uav[17] utilizationCountManeuversMission 55
scalar OsgEarthNet.uav[17] utilizationCountManeuversMaintenance 10
scalar OsgEarthNet.uav[17] utilizationCountChargeState 5
scalar OsgEarthNet.uav[17] utilizationCountOverdrawnAfterMission 0
scalar OsgEarthNet.uav[17] utilizationCountIdleState 6
scalar OsgEarthNet.uav[17] utilizationFail 0
scalar OsgEarthNet.uav[17] simulationTime 259200
scalar OsgEarthNet.uav[18] utilizationSecMission 14768.124467263
scalar OsgEarthNet.uav[18] utilizationSecMaintenance 4661.9112760283
scalar OsgEarthNet.uav[18] utilizationSecCharge 69983.939990911
scalar OsgEarthNet.uav[18] utilizationSecIdle 169786.0232658
scalar OsgEarthNet.uav[18] utilizationEnergyMission 67424.864051819
scalar OsgEarthNet.uav[18] utilizationEnergyMaintenance 21884.53565979
scalar OsgEarthNet.uav[18] utilizationEnergyCharge 88736.819824219
scalar OsgEarthNet.uav[18] utilizationEnergyOverdrawMission 0
scalar OsgEarthNet.uav[18] utilizationEnergyOverdrawMaintenance 0
scalar OsgEarthNet.uav[18] utilizationCountMissions 19
scalar OsgEarthNet.uav[18] utilizationCountManeuversMission 256
scalar OsgEarthNet.uav[18] utilizationCountManeuversMaintenance 38
scalar OsgEarthNet.uav[18] utilizationCountChargeState 19
scalar OsgEarthNet.uav[18] utilizationCountOverdrawnAfterMission 0
scalar OsgEarthNet.uav[18] utilizationCountIdleState 19
scalar OsgEarthNet.uav[18] utilizationFail 0
scalar OsgEarthNet.uav[18] simulationTime 259200
scalar OsgEarthNet.uav[19] utilizationSecMission 8693.2382615858
scalar OsgEarthNet.uav[19] utilizationSecMaintenance 4461.2300081107
scalar OsgEarthNet.uav[19] utilizationSecCharge 45416.201591601
scalar OsgEarthNet.uav[19] utilizationSecIdle 200629.3291387
scalar OsgEarthNet.uav[19] utilizationEnergyMission 39479.612846374
scalar OsgEarthNet.uav[19] utilizationEnergyMaintenance 21308.990455627
scalar OsgEarthNet.uav[19] utilizationEnergyCharge 57028.54119873
scalar OsgEarthNet.uav[19] utilizationEnergyOverdrawMission 0
scalar OsgEarthNet.uav[19] utilizationEnergyOverdrawMaintenance 0
scalar OsgEarthNet.uav[19] utilizationCountMissions 13
scalar OsgEarthNet.uav[19] utilizationCountManeuversMission 144
scalar OsgEarthNet.uav[19] utilizationCountManeuversMaintenance 26
scalar OsgEarthNet.uav[19] utilizationCountChargeState 13
scalar OsgEarthNet.uav[19] utilizationCountOverdrawnAfterMission 0
scalar OsgEarthNet.uav[19] utilizationCountIdleState 13
scalar OsgEarthNet.uav[19] utilizationFail 0
scalar OsgEarthNet.uav[19] simulationTime 259200
scalar OsgEarthNet.uav[20] utilizationSecMission 14590.746832106
scalar OsgEarthNet.uav[20] utilizationSecMaintenance 4947.2385466609
scalar OsgEarthNet.uav[20] utilizationSecCharge 73570
scalar OsgEarthNet.uav[20] utilizationSecIdle 166092.01362123
scalar OsgEarthNet.uav[20] utilizationEnergyMission 67876.523078918
scalar OsgEarthNet.uav[20] utilizationEnergyMaintenance 23769.867641449
scalar OsgEarthNet.uav[20] utilizationEnergyCharge 91396.6796875
scalar OsgEarthNet.uav[20] utilizationEnergyOverdrawMission 0
scalar OsgEarthNet.uav[20] utilizationEnergyOverdrawMaintenance 0
scalar OsgEarthNet.uav[20] utilizationCountMissions 20
scalar OsgEarthNet.uav[20] utilizationCountManeuversMission 220
scalar OsgEarthNet.uav[20] utilizationCountManeuversMaintenance 40
scalar OsgEarthNet.uav[20] utilizationCountChargeState 20
scalar OsgEarthNet.uav[20] utilizationCountOverdrawnAfterMission 0
scalar OsgEarthNet.uav[20] utilizationCountIdleState 21
scalar OsgEarthNet.uav[20] utilizationFail 0
scalar OsgEarthNet.uav[20] simulationTime 259200
scalar OsgEarthNet.uav[21] utilizationSecMission 1967.6014882953
scalar OsgEarthNet.uav[21] utilizationSecMaintenance 1129.4139392568
scalar OsgEarthNet.uav[21] utilizationSecCharge 11360
scalar OsgEarthNet.uav[21] utilizationSecIdle 244742.98357245
scalar OsgEarthNet.uav[21] utilizationEnergyMission 9115.1671142578
scalar OsgEarthNet.uav[21] utilizationEnergyMaintenance 5197.5921478272
scalar OsgEarthNet.uav[21] utilizationEnergyCharge 14312.758300781
scalar OsgEarthNet.uav[21] utilizationEnergyOverdrawMission 0
scalar OsgEarthNet.uav[21] utilizationEnergyOverdrawMaintenance 0
scalar OsgEarthNet.uav[21] utilizationCountMissions 3
scalar OsgEarthNet.uav[21] utilizationCountManeuversMission 34
scalar OsgEarthNet.uav[21] utilizationCountManeuversMaintenance 6
scalar OsgEarthNet.uav[21] utilizationCountChargeState 3
scalar OsgEarthNet.uav[21] utilizationCountOverdrawnAfterMission 0
scalar OsgEarthNet.uav[21] utilizationCountIdleState 4
scalar OsgEarthNet.uav[21] utilizationFail 0
scalar OsgEarthNet.uav[21] simulationTime 259200
scalar OsgEarthNet.uav[22] utilizationSecMission 16990.100796618
scalar OsgEarthNet.uav[22] utilizationSecMaintenance 5564.3536316442
scalar OsgEarthNet.uav[22] utilizationSecCharge 82007.728810847
scalar OsgEarthNet.uav[22] utilizationSecIdle 154637.81576089
scalar OsgEarthNet.uav[22] utilizationEnergyMission 77807.024925232
scalar OsgEarthNet.uav[22] utilizationEnergyMaintenance 25711.585224152
scalar OsgEarthNet.uav[22] utilizationEnergyCharge 103519.828125
scalar OsgEarthNet.uav[22] utilizationEnergyOverdrawMission 0
scalar OsgEarthNet.uav[22] utilizationEnergyOverdrawMaintenance 0
scalar OsgEarthNet.uav[22] utilizationCountMissions 22
scalar OsgEarthNet.uav[22] utilizationCountManeuversMission 295
scalar OsgEarthNet.uav[22] utilizationCountManeuversMaintenance 44
scalar OsgEarthNet.uav[22] utilizationCountChargeState 22
scalar OsgEarthNet.uav[22] utilizationCountOverdrawnAfterMission 0
scalar OsgEarthNet.uav[22] utilizationCountIdleState 22
scalar OsgEarthNet.uav[22] utilizationFail 0
scalar OsgEarthNet.uav[22] simulationTime 259200
scalar OsgEarthNet.uav[23] utilizationSecMission 7401.3912502366
scalar OsgEarthNet.uav[23] utilizationSecMaintenance 2692.1675298457
scalar OsgEarthNet.uav[23] utilizationSecCharge 37510
scalar OsgEarthNet.uav[23] utilizationSecIdle 211596.44021992
scalar OsgEarthNet.uav[23] utilizationEnergyMission 33932.613250732
scalar OsgEarthNet.uav[23] utilizationEnergyMaintenance 13129.306816101
scalar OsgEarthNet.uav[23] utilizationEnergyCharge 47061.937011719
scalar OsgEarthNet.uav[23] utilizationEnergyOverdrawMission 0
scalar OsgEarthNet.uav[23] utilizationEnergyOverdrawMaintenance 0
scalar OsgEarthNet.uav[23] utilizationCountMissions 10
scalar OsgEarthNet.uav[23] utilizationCountManeuversMission 114
scalar OsgEarthNet.uav[23] utilizationCountManeuversMaintenance 20
scalar OsgEarthNet.uav[23] utilizationCountChargeState 10
scalar OsgEarthNet.uav[23] utilizationCountOverdrawnAfterMission 0
scalar OsgEarthNet.uav[23] utilizationCountIdleState 11
scalar OsgEarthNet.uav[23] utilizationFail 0
scalar OsgEarthNet.uav[23] simulationTime 259200
scalar OsgEarthNet.uav[24] utilizationSecMission 13340.896596139
scalar OsgEarthNet.uav[24] utilizationSecMaintenance 5713.8103119128
scalar OsgEarthNet.uav[24] utilizationSecCharge 70590
scalar OsgEarthNet.uav[24] utilizationSecIdle 169555.29209195
scalar OsgEarthNet.uav[24] utilizationEnergyMission 62158.241149902
scalar OsgEarthNet.uav[24] utilizationEnergyMaintenance 27037.068222046
scalar OsgEarthNet.uav[24] utilizationEnergyCharge 89195.306640625
scalar OsgEarthNet.uav[24] utilizationEnergyOverdrawMission 0
scalar OsgEarthNet.uav[24] utilizationEnergyOverdrawMaintenance 0
scalar OsgEarthNet.uav[24] utilizationCountMissions 19
scalar OsgEarthNet.uav[24] utilizationCountManeuversMission 228
scalar OsgEarthNet.uav[24] utilizationCountManeuversMaintenance 38
scalar OsgEarthNet.uav[24] utilizationCountChargeState 19
scalar OsgEarthNet.uav[24] utilizationCountOverdrawnAfterMission 0
scalar OsgEarthNet.uav[24] utilizationCountIdleState 16
scalar OsgEarthNet.uav[24] utilizationFail 0
scalar OsgEarthNet.uav[24] simulationTime 259200
scalar OsgEarthNet.uav[25] utilizationSecMission 12801.773013227
scalar OsgEarthNet.uav[25] utilizationSecMaintenance 3708.6053876529
scalar OsgEarthNet.uav[25] utilizationSecCharge 60720
scalar OsgEarthNet.uav[25] utilizationSecIdle 181969.62059912
scalar OsgEarthNet.uav[25] utilizationEnergyMission 59484.016098022
scalar OsgEarthNet.uav[25] utilizationEnergyMaintenance 17024.867656708
scalar OsgEarthNet.uav[25] utilizationEnergyCharge 76404.736328125
scalar OsgEarthNet.uav[25] utilizationEnergyOverdrawMission 0
scalar OsgEarthNet.uav[25] utilizationEnergyOverdrawMaintenance 0
scalar OsgEarthNet.uav[25] utilizationCountMissions 16
scalar OsgEarthNet.uav[25] utilizationCountManeuversMission 215
scalar OsgEarthNet.uav[25] utilizationCountManeuversMaintenance 32
scalar OsgEarthNet.uav[25] utilizationCountChargeState 16
scalar OsgEarthNet.uav[25] utilizationCountOverdrawnAfterMission 0
scalar OsgEarthNet.uav[25] utilizationCountIdleState 17
scalar OsgEarthNet.uav[25] utilizationFail 0
scalar OsgEarthNet.uav[25] simulationTime 259200
scalar OsgEarthNet.uav[26] utilizationSecMission 21853.600008458
scalar OsgEarthNet.uav[26] utilizationSecMaintenance 6690.2102558998
scalar OsgEarthNet.uav[26] utilizationSecCharge 104699.96552098
scalar OsgEarthNet.uav[26] utilizationSecIdle 125956.22321466
scalar OsgEarthNet.uav[26] utilizationEnergyMission 100818.90670013
scalar OsgEarthNet.uav[26] utilizationEnergyMaintenance 32243.016414642
scalar OsgEarthNet.uav[26] utilizationEnergyCharge 132300.54760742
scalar OsgEarthNet.uav[26] utilizationEnergyOverdrawMission 0
scalar OsgEarthNet.uav[26] utilizationEnergyOverdrawMaintenance 0
scalar OsgEarthNet.uav[26] utilizationCountMissions 29
scalar OsgEarthNet.uav[26] utilizationCountManeuversMission 332
scalar OsgEarthNet.uav[26] utilizationCountManeuversMaintenance 58
scalar OsgEarthNet.uav[26] utilizationCountChargeState 29
scalar OsgEarthNet.uav[26] utilizationCountOverdrawnAfterMission 0
scalar OsgEarthNet.uav[26] utilizationCountIdleState 23
scalar OsgEarthNet.uav[26] utilizationFail 0
scalar OsgEarthNet.uav[26] simulationTime 259200
scalar OsgEarthNet.uav[27] utilizationSecMission 3838.5234272569
scalar OsgEarthNet.uav[27] utilizationSecMaintenance 2130.9828388583
scalar OsgEarthNet.uav[27] utilizationSecCharge 22640
scalar OsgEarthNet.uav[27] utilizationSecIdle 230590.49273388
scalar OsgEarthNet.uav[27] utilizationEnergyMission 18057.631408691
scalar OsgEarthNet.uav[27] utilizationEnergyMaintenance 10305.433692932
scalar OsgEarthNet.uav[27] utilizationEnergyCharge 28363.068359375
scalar OsgEarthNet.uav[27] utilizationEnergyOverdrawMission 0
scalar OsgEarthNet.uav[27] utilizationEnergyOverdrawMaintenance 0
scalar OsgEarthNet.uav[27] utilizationCountMissions 6
scalar OsgEarthNet.uav[27] utilizationCountManeuversMission 62
scalar OsgEarthNet.uav[27] utilizationCountManeuversMaintenance 12
scalar OsgEarthNet.uav[27] utilizationCountChargeState 6
scalar OsgEarthNet.uav[27] utilizationCountOverdrawnAfterMission 0
scalar OsgEarthNet.uav[27] utilizationCountIdleState 7
scalar OsgEarthNet.uav[27] utilizationFail 0
scalar OsgEarthNet.uav[27] simulationTime 259200
scalar OsgEarthNet.uav[28] utilizationSecMission 16391.178385156
scalar OsgEarthNet.uav[28] utilizationSecMaintenance 6249.5793109226
scalar OsgEarthNet.uav[28] utilizationSecCharge 82950
scalar OsgEarthNet.uav[28] utilizationSecIdle 153609.24130392
scalar OsgEarthNet.uav[28] utilizationEnergyMission 75351.085365295
scalar OsgEarthNet.uav[28] utilizationEnergyMaintenance 28596.085193634
scalar OsgEarthNet.uav[28] utilizationEnergyCharge 104011.70117188
scalar OsgEarthNet.uav[28] utilizationEnergyOverdrawMission 0
scalar OsgEarthNet.uav[28] utilizationEnergyOverdrawMaintenance 0
scalar OsgEarthNet.uav[28] utilizationCountMissions 22
scalar OsgEarthNet.uav[28] utilizationCountManeuversMission 287
scalar OsgEarthNet.uav[28] utilizationCountManeuversMaintenance 44
scalar OsgEarthNet.uav[28] utilizationCountChargeState 22
scalar OsgEarthNet.uav[28] utilizationCountOverdrawnAfterMission 0
scalar OsgEarthNet.uav[28] utilizationCountIdleState 23
scalar OsgEarthNet.uav[28] utilizationFail 0
scalar OsgEarthNet.uav[28] simulationTime 259200
scalar OsgEarthNet.uav[29] utilizationSecMission 3327.3018407483
scalar OsgEarthNet.uav[29] utilizationSecMaintenance 1876.5172001976
scalar OsgEarthNet.uav[29] utilizationSecCharge 18750
scalar OsgEarthNet.uav[29] utilizationSecIdle 235246.17995905
scalar OsgEarthNet.uav[29] utilizationEnergyMission 15996.397051372
scalar OsgEarthNet.uav[29] utilizationEnergyMaintenance 8644.2041091919
scalar OsgEarthNet.uav[29] utilizationEnergyCharge 23537.807617188
scalar OsgEarthNet.uav[29] utilizationEnergyOverdrawMission 0
scalar OsgEarthNet.uav[29] utilizationEnergyOverdrawMaintenance 0
scalar OsgEarthNet.uav[29] utilizationCountMissions 5
scalar OsgEarthNet.uav[29] utilizationCountManeuversMission 56
scalar OsgEarthNet.uav[29] utilizationCountManeuversMaintenance 11
scalar OsgEarthNet.uav[29] utilizationCountChargeState 5
scalar OsgEarthNet.uav[29] utilizationCountOverdrawnAfterMission 0
scalar OsgEarthNet.uav[29] utilizationCountIdleState 6
scalar OsgEarthNet.uav[29] utilizationFail 0
scalar OsgEarthNet.uav[29] simulationTime 259200
scalar OsgEarthNet.uav[30] utilizationSecMission 22610.346075368
scalar OsgEarthNet.uav[30] utilizationSecMaintenance 7365.1216249532
scalar OsgEarthNet.uav[30] utilizationSecCharge 109273.94986283
scalar OsgEarthNet.uav[30] utilizationSecIdle 119950.58143685
scalar OsgEarthNet.uav[30] utilizationEnergyMission 103876.58614349
scalar OsgEarthNet.uav[30] utilizationEnergyMaintenance 35396.115467072
scalar OsgEarthNet.uav[30] utilizationEnergyCharge 138516.85888672
scalar OsgEarthNet.uav[30] utilizationEnergyOverdrawMission 0
scalar OsgEarthNet.uav[30] utilizationEnergyOverdrawMaintenance 0
scalar OsgEarthNet.uav[30] utilizationCountMissions 30
scalar OsgEarthNet.uav[30] utilizationCountManeuversMission 340
scalar OsgEarthNet.uav[30] utilizationCountManeuversMaintenance 60
scalar OsgEarthNet.uav[30] utilizationCountChargeState 30
scalar OsgEarthNet.uav[30] utilizationCountOverdrawnAfterMission 0
scalar OsgEarthNet.uav[30] utilizationCountIdleState 22
scalar OsgEarthNet.uav[30] utilizationFail 0
scalar OsgEarthNet.uav[30] simulationTime 259200
scalar OsgEarthNet.uav[31] utilizationSecMission 655.55330183502
scalar OsgEarthNet.uav[31] utilizationSecMaintenance 334.5505930207
scalar OsgEarthNet.uav[31] utilizationSecCharge 3740
scalar OsgEarthNet.uav[31] utilizationSecIdle 254469.89510514
scalar OsgEarthNet.uav[31] utilizationEnergyMission 2941.6318969727
scalar OsgEarthNet.uav[31] utilizationEnergyMaintenance 1760.8728141785
scalar OsgEarthNet.uav[31] utilizationEnergyCharge 4702.5053710938
scalar OsgEarthNet.uav[31] utilizationEnergyOverdrawMission 0
scalar OsgEarthNet.uav[31] utilizationEnergyOverdrawMaintenance 0
scalar OsgEarthNet.uav[31] utilizationCountMissions 1
scalar OsgEarthNet.uav[31] utilizationCountManeuversMission 10
scalar OsgEarthNet.uav[31] utilizationCountManeuversMaintenance 2
scalar OsgEarthNet.uav[31] utilizationCountChargeState 1
scalar OsgEarthNet.uav[31] utilizationCountOverdrawnAfterMission 0
scalar OsgEarthNet.uav[31] utilizationCountIdleState 2
scalar OsgEarthNet.uav[31] utilizationFail 0
scalar OsgEarthNet.uav[31] simulationTime 259200
scalar OsgEarthNet.uav[32] utilizationSecMission 20538.097753471
scalar OsgEarthNet.uav[32] utilizationSecMaintenance 6271.5921294925
scalar OsgEarthNet.uav[32] utilizationSecCharge 94980.83729524
scalar OsgEarthNet.uav[32] utilizationSecIdle 137409.4718218
scalar OsgEarthNet.uav[32] utilizationEnergyMission 95615.764442444
scalar OsgEarthNet.uav[32] utilizationEnergyMaintenance 28861.233417511
scalar OsgEarthNet.uav[32] utilizationEnergyCharge 119212.44213867
scalar OsgEarthNet.uav[32] utilizationEnergyOverdrawMission 0
scalar OsgEarthNet.uav[32] utilizationEnergyOverdrawMaintenance 0
scalar OsgEarthNet.uav[32] utilizationCountMissions 26
scalar OsgEarthNet.uav[32] utilizationCountManeuversMission 352
scalar OsgEarthNet.uav[32] utilizationCountManeuversMaintenance 52
scalar OsgEarthNet.uav[32] utilizationCountChargeState 26
scalar OsgEarthNet.uav[32] utilizationCountOverdrawnAfterMission 0
scalar OsgEarthNet.uav[32] utilizationCountIdleState 26
scalar OsgEarthNet.uav[32] utilizationFail 0
scalar OsgEarthNet.uav[32] simulationTime 259200
scalar OsgEarthNet.uav[33] utilizationSecMission 5749.4766342847
scalar OsgEarthNet.uav[33] utilizationSecMaintenance 2150.3235873057
scalar OsgEarthNet.uav[33] utilizationSecCharge 29810
scalar OsgEarthNet.uav[33] utilizationSecIdle 221490.19877841
scalar OsgEarthNet.uav[33] utilizationEnergyMission 26944.628334045
scalar OsgEarthNet.uav[33] utilizationEnergyMaintenance 10214.733184814
scalar OsgEarthNet.uav[33] utilizationEnergyCharge 37159.362304688
scalar OsgEarthNet.uav[33] utilizationEnergyOverdrawMission 0
scalar OsgEarthNet.uav[33] utilizationEnergyOverdrawMaintenance 0
scalar OsgEarthNet.uav[33] utilizationCountMissions 8
scalar OsgEarthNet.uav[33] utilizationCountManeuversMission 88
scalar OsgEarthNet.uav[33] utilizationCountManeuversMaintenance 16
scalar OsgEarthNet.uav[33] utilizationCountChargeState 8
scalar OsgEarthNet.uav[33] utilizationCountOverdrawnAfterMission 0
scalar OsgEarthNet.uav[33] utilizationCountIdleState 9
scalar OsgEarthNet.uav[33] utilizationFail 0
scalar OsgEarthNet.uav[33] simulationTime 259200
scalar OsgEarthNet.uav[34] utilizationSecMission 743.20678019818
scalar OsgEarthNet.uav[34] utilizationSecMaintenance 295.89994741134
scalar OsgEarthNet.uav[34] utilizationSecCharge 3760
scalar OsgEarthNet.uav[34] utilizationSecIdle 254400.89227239
scalar OsgEarthNet.uav[34] utilizationEnergyMission 3214.3352661133
scalar OsgEarthNet.uav[34] utilizationEnergyMaintenance 1486.6211166382
scalar OsgEarthNet.uav[34] utilizationEnergyCharge 4700.9545898438
scalar OsgEarthNet.uav[34] utilizationEnergyOverdrawMission 0
scalar OsgEarthNet.uav[34] utilizationEnergyOverdrawMaintenance 0
scalar OsgEarthNet.uav[34] utilizationCountMissions 1
scalar OsgEarthNet.uav[34] utilizationCountManeuversMission 12
scalar OsgEarthNet.uav[34] utilizationCountManeuversMaintenance 2
scalar OsgEarthNet.uav[34] utilizationCountChargeState 1
scalar OsgEarthNet.uav[34] utilizationCountOverdrawnAfterMission 0
scalar OsgEarthNet.uav[34] utilizationCountIdleState 2
scalar OsgEarthNet.uav[34] utilizationFail 0
scalar OsgEarthNet.uav[34] simulationTime 259200
scalar OsgEarthNet.uav[35] utilizationSecMission 10967.583004313
scalar OsgEarthNet.uav[35] utilizationSecMaintenance 3960.2801364146
scalar OsgEarthNet.uav[35] utilizationSecCharge 56250
scalar OsgEarthNet.uav[35] utilizationSecIdle 188022.13585927
scalar OsgEarthNet.uav[35] utilizationEnergyMission 51176.038383484
scalar OsgEarthNet.uav[35] utilizationEnergyMaintenance 19238.74098587
scalar OsgEarthNet.uav[35] utilizationEnergyCharge 70392.395507812
scalar OsgEarthNet.uav[35] utilizationEnergyOverdrawMission 0
scalar OsgEarthNet.uav[35] utilizationEnergyOverdrawMaintenance 0
scalar OsgEarthNet.uav[35] utilizationCountMissions 15
scalar OsgEarthNet.uav[35] utilizationCountManeuversMission 167
scalar OsgEarthNet.uav[35] utilizationCountManeuversMaintenance 30
scalar OsgEarthNet.uav[35] utilizationCountChargeState 15
scalar OsgEarthNet.uav[35] utilizationCountOverdrawnAfterMission 0
scalar OsgEarthNet.uav[35] utilizationCountIdleState 15
scalar OsgEarthNet.uav[35] utilizationFail 0
scalar OsgEarthNet.uav[35] simulationTime 259200
scalar OsgEarthNet.uav[36] utilizationSecMission 4152.0744064822
scalar OsgEarthNet.uav[36] utilizationSecMaintenance 1848.7540636706
scalar OsgEarthNet.uav[36] utilizationSecCharge 22370
scalar OsgEarthNet.uav[36] utilizationSecIdle 230829.17052985
scalar OsgEarthNet.uav[36] utilizationEnergyMission 19206.673244476
scalar OsgEarthNet.uav[36] utilizationEnergyMaintenance 8808.911151886
scalar OsgEarthNet.uav[36] utilizationEnergyCharge 28015.580078125
scalar OsgEarthNet.uav[36] utilizationEnergyOverdrawMission 0
scalar OsgEarthNet.uav[36] utilizationEnergyOverdrawMaintenance 0
scalar OsgEarthNet.uav[36] utilizationCountMissions 6
scalar OsgEarthNet.uav[36] utilizationCountManeuversMission 63
scalar OsgEarthNet.uav[36] utilizationCountManeuversMaintenance 12
scalar OsgEarthNet.uav[36] utilizationCountChargeState 6
scalar OsgEarthNet.uav[36] utilizationCountOverdrawnAfterMission 0
scalar OsgEarthNet.uav[36] utilizationCountIdleState 7
scalar OsgEarthNet.uav[36] utilizationFail 0
scalar OsgEarthNet.uav[36] simulationTime 259200
scalar OsgEarthNet.uav[37] utilizationSecMission 9971.3411988458
scalar OsgEarthNet.uav[37] utilizationSecMaintenance 5056.9941176846
scalar OsgEarthNet.uav[37] utilizationSecCharge 55390
scalar OsgEarthNet.uav[37] utilizationSecIdle 188781.66368347
scalar OsgEarthNet.uav[37] utilizationEnergyMission 46720.256744385
scalar OsgEarthNet.uav[37] utilizationEnergyMaintenance 23864.89364624
scalar OsgEarthNet.uav[37] utilizationEnergyCharge 70585.158691406
scalar OsgEarthNet.uav[37] utilizationEnergyOverdrawMission 0
scalar OsgEarthNet.uav[37] utilizationEnergyOverdrawMaintenance 0
scalar OsgEarthNet.uav[37] utilizationCountMissions 15
scalar OsgEarthNet.uav[37] utilizationCountManeuversMission 172
scalar OsgEarthNet.uav[37] utilizationCountManeuversMaintenance 30
scalar OsgEarthNet.uav[37] utilizationCountChargeState 15
scalar OsgEarthNet.uav[37] utilizationCountOverdrawnAfterMission 0
scalar OsgEarthNet.uav[37] utilizationCountIdleState 11
scalar OsgEarthNet.uav[37] utilizationFail 0
scalar OsgEarthNet.uav[37] simulationTime 259200
scalar OsgEarthNet.uav[38] utilizationSecMission 23949.708831062
scalar OsgEarthNet.uav[38] utilizationSecMaintenance 8257.2761931265
scalar OsgEarthNet.uav[38] utilizationSecCharge 116900
scalar OsgEarthNet.uav[38] utilizationSecIdle 110093.01397581
scalar OsgEarthNet.uav[38] utilizationEnergyMission 110191.88143158
scalar OsgEarthNet.uav[38] utilizationEnergyMaintenance 38055.810287476
scalar OsgEarthNet.uav[38] utilizationEnergyCharge 146729.34130859
scalar OsgEarthNet.uav[38] utilizationEnergyOverdrawMission 0
scalar OsgEarthNet.uav[38] utilizationEnergyOverdrawMaintenance 0
scalar OsgEarthNet.uav[38] utilizationCountMissions 31
scalar OsgEarthNet.uav[38] utilizationCountManeuversMission 414
scalar OsgEarthNet.uav[38] utilizationCountManeuversMaintenance 62
scalar OsgEarthNet.uav[38] utilizationCountChargeState 31
scalar OsgEarthNet.uav[38] utilizationCountOverdrawnAfterMission 0
scalar OsgEarthNet.uav[38] utilizationCountIdleState 32
scalar OsgEarthNet.uav[38] utilizationFail 0
scalar OsgEarthNet.uav[38] simulationTime 259200
scalar OsgEarthNet.uav[39] utilizationSecMission 11371.958919621
scalar OsgEarthNet.uav[39] utilizationSecMaintenance 4439.6128883305
scalar OsgEarthNet.uav[39] utilizationSecCharge 59080
scalar OsgEarthNet.uav[39] utilizationSecIdle 184308.42719205
scalar OsgEarthNet.uav[39] utilizationEnergyMission 51942.516067505
scalar OsgEarthNet.uav[39] utilizationEnergyMaintenance 21531.754070282
scalar OsgEarthNet.uav[39] utilizationEnergyCharge 73473.237792969
scalar OsgEarthNet.uav[39] utilizationEnergyOverdrawMission 0
scalar OsgEarthNet.uav[39] utilizationEnergyOverdrawMaintenance 0
scalar OsgEarthNet.uav[39] utilizationCountMissions 16
scalar OsgEarthNet.uav[39] utilizationCountManeuversMission 173
scalar OsgEarthNet.uav[39] utilizationCountManeuversMaintenance 32
scalar OsgEarthNet.uav[39] utilizationCountChargeState 16
scalar OsgEarthNet.uav[39] utilizationCountOverdrawnAfterMission 0
scalar OsgEarthNet.uav[39] utilizationCountIdleState 17
scalar OsgEarthNet.uav[39] utilizationFail 0
scalar OsgEarthNet.uav[39] simulationTime 259200
scalar OsgEarthNet.uav[40] utilizationSecMission 21957.469190107
scalar OsgEarthNet.uav[40] utilizationSecMaintenance 6872.5901317865
scalar OsgEarthNet.uav[40] utilizationSecCharge 105898.11794124
scalar OsgEarthNet.uav[40] utilizationSecIdle 124471.82173686
scalar OsgEarthNet.uav[40] utilizationEnergyMission 100581.99156952
scalar OsgEarthNet.uav[40] utilizationEnergyMaintenance 32997.158443451
scalar OsgEarthNet.uav[40] utilizationEnergyCharge 133428.16113281
scalar OsgEarthNet.uav[40] utilizationEnergyOverdrawMission 0
scalar OsgEarthNet.uav[40] utilizationEnergyOverdrawMaintenance 0
scalar OsgEarthNet.uav[40] utilizationCountMissions 29
scalar OsgEarthNet.uav[40] utilizationCountManeuversMission 337
scalar OsgEarthNet.uav[40] utilizationCountManeuversMaintenance 58
scalar OsgEarthNet.uav[40] utilizationCountChargeState 29
scalar OsgEarthNet.uav[40] utilizationCountOverdrawnAfterMission 0
scalar OsgEarthNet.uav[40] utilizationCountIdleState 27
scalar OsgEarthNet.uav[40] utilizationFail 0
scalar OsgEarthNet.uav[40] simulationTime 259200
scalar OsgEarthNet.uav[41] utilizationSecMission 14137.471681439
scalar OsgEarthNet.uav[41] utilizationSecMaintenance 6090.6934936588
scalar OsgEarthNet.uav[41] utilizationSecCharge 74700
scalar OsgEarthNet.uav[41] utilizationSecIdle 164271.8338249
scalar OsgEarthNet.uav[41] utilizationEnergyMission 65046.166618347
scalar OsgEarthNet.uav[41] utilizationEnergyMaintenance 28725.179317474
scalar OsgEarthNet.uav[41] utilizationEnergyCharge 93732.839355469
scalar OsgEarthNet.uav[41] utilizationEnergyOverdrawMission 0
scalar OsgEarthNet.uav[41] utilizationEnergyOverdrawMaintenance 0
scalar OsgEarthNet.uav[41] utilizationCountMissions 20
scalar OsgEarthNet.uav[41] utilizationCountManeuversMission 227
scalar OsgEarthNet.uav[41] utilizationCountManeuversMaintenance 40
scalar OsgEarthNet.uav[41] utilizationCountChargeState 20
scalar OsgEarthNet.uav[41] utilizationCountOverdrawnAfterMission 0
scalar OsgEarthNet.uav[41] utilizationCountIdleState 20
scalar OsgEarthNet.uav[41] utilizationFail 0
scalar OsgEarthNet.uav[41] simulationTime 259200
scalar OsgEarthNet.uav[42] utilizationSecMission 3522.8021539886
scalar OsgEarthNet.uav[42] utilizationSecMaintenance 2517.9176269195
scalar OsgEarthNet.uav[42] utilizationSecCharge 22170
scalar OsgEarthNet.uav[42] utilizationSecIdle 230989.27921909
scalar OsgEarthNet.uav[42] utilizationEnergyMission 16394.613754272
scalar OsgEarthNet.uav[42] utilizationEnergyMaintenance 11842.093238831
scalar OsgEarthNet.uav[42] utilizationEnergyCharge 28236.694335938
scalar OsgEarthNet.uav[42] utilizationEnergyOverdrawMission 0
scalar OsgEarthNet.uav[42] utilizationEnergyOverdrawMaintenance 0
scalar OsgEarthNet.uav[42] utilizationCountMissions 6
scalar OsgEarthNet.uav[42] utilizationCountManeuversMission 55
scalar OsgEarthNet.uav[42] utilizationCountManeuversMaintenance 12
scalar OsgEarthNet.uav[42] utilizationCountChargeState 6
scalar OsgEarthNet.uav[42] utilizationCountOverdrawnAfterMission 0
scalar OsgEarthNet.uav[42] utilizationCountIdleState 6
scalar OsgEarthNet.uav[42] utilizationFail 0
scalar OsgEarthNet.uav[42] simulationTime 259200
scalar OsgEarthNet.uav[43] utilizationSecMission 10006.71841338
scalar OsgEarthNet.uav[43] utilizationSecMaintenance 4122.9609073146
scalar OsgEarthNet.uav[43] utilizationSecCharge 51506.601073217
scalar OsgEarthNet.uav[43] utilizationSecIdle 193563.71860609
scalar OsgEarthNet.uav[43] utilizationEnergyMission 46322.563201904
scalar OsgEarthNet.uav[43] utilizationEnergyMaintenance 19601.082080841
scalar OsgEarthNet.uav[43] utilizationEnergyCharge 65718.741943359
scalar OsgEarthNet.uav[43] utilizationEnergyOverdrawMission 0
scalar OsgEarthNet.uav[43] utilizationEnergyOverdrawMaintenance 0
scalar OsgEarthNet.uav[43] utilizationCountMissions 14
scalar OsgEarthNet.uav[43] utilizationCountManeuversMission 163
scalar OsgEarthNet.uav[43] utilizationCountManeuversMaintenance 28
scalar OsgEarthNet.uav[43] utilizationCountChargeState 14
scalar OsgEarthNet.uav[43] utilizationCountOverdrawnAfterMission 0
scalar OsgEarthNet.uav[43] utilizationCountIdleState 13
scalar OsgEarthNet.uav[43] utilizationFail 0
scalar OsgEarthNet.uav[43] simulationTime 259200
scalar OsgEarthNet.uav[44] utilizationSecMission 8645.2078857176
scalar OsgEarthNet.uav[44] utilizationSecMaintenance 4204.6023765532
scalar OsgEarthNet.uav[44] utilizationSecCharge 47710
scalar OsgEarthNet.uav[44] utilizationSecIdle 198640.18873773
scalar OsgEarthNet.uav[44] utilizationEnergyMission 40259.924972534
scalar OsgEarthNet.uav[44] utilizationEnergyMaintenance 19700.8098526
scalar OsgEarthNet.uav[44] utilizationEnergyCharge 59960.733886719
scalar OsgEarthNet.uav[44] utilizationEnergyOverdrawMission 0
scalar OsgEarthNet.uav[44] utilizationEnergyOverdrawMaintenance 0
scalar OsgEarthNet.uav[44] utilizationCountMissions 13
scalar OsgEarthNet.uav[44] utilizationCountManeuversMission 149
scalar OsgEarthNet.uav[44] utilizationCountManeuversMaintenance 26
scalar OsgEarthNet.uav[44] utilizationCountChargeState 13
scalar OsgEarthNet.uav[44] utilizationCountOverdrawnAfterMission 0
scalar OsgEarthNet.uav[44] utilizationCountIdleState 11
scalar OsgEarthNet.uav[44] utilizationFail 0
scalar OsgEarthNet.uav[44] simulationTime 259200
scalar OsgEarthNet.uav[45] utilizationSecMission 19052.950176364
scalar OsgEarthNet.uav[45] utilizationSecMaintenance 6434.694251405
scalar OsgEarthNet.uav[45] utilizationSecCharge 93960.888139807
scalar OsgEarthNet.uav[45] utilizationSecIdle 139751.46643242
scalar OsgEarthNet.uav[45] utilizationEnergyMission 88152.605781555
scalar OsgEarthNet.uav[45] utilizationEnergyMaintenance 30063.199943542
scalar OsgEarthNet.uav[45] utilizationEnergyCharge 118807.08544922
scalar OsgEarthNet.uav[45] utilizationEnergyOverdrawMission 0
scalar OsgEarthNet.uav[45] utilizationEnergyOverdrawMaintenance 0
scalar OsgEarthNet.uav[45] utilizationCountMissions 25
scalar OsgEarthNet.uav[45] utilizationCountManeuversMission 331
scalar OsgEarthNet.uav[45] utilizationCountManeuversMaintenance 50
scalar OsgEarthNet.uav[45] utilizationCountChargeState 25
scalar OsgEarthNet.uav[45] utilizationCountOverdrawnAfterMission 0
scalar OsgEarthNet.uav[45] utilizationCountIdleState 25
scalar OsgEarthNet.uav[45] utilizationFail 0
scalar OsgEarthNet.uav[45] simulationTime 259200
scalar OsgEarthNet.uav[46] utilizationSecMission 12626.007146379
scalar OsgEarthNet.uav[46] utilizationSecMaintenance 5079.2810473131
scalar OsgEarthNet.uav[46] utilizationSecCharge 66770
scalar OsgEarthNet.uav[46] utilizationSecIdle 174724.71080631
scalar OsgEarthNet.uav[46] utilizationEnergyMission 59296.716712952
scalar OsgEarthNet.uav[46] utilizationEnergyMaintenance 24081.401798248
scalar OsgEarthNet.uav[46] utilizationEnergyCharge 83078.931152344
scalar OsgEarthNet.uav[46] utilizationEnergyOverdrawMission 0
scalar OsgEarthNet.uav[46] utilizationEnergyOverdrawMaintenance 0
scalar OsgEarthNet.uav[46] utilizationCountMissions 18
scalar OsgEarthNet.uav[46] utilizationCountManeuversMission 200
scalar OsgEarthNet.uav[46] utilizationCountManeuversMaintenance 36
scalar OsgEarthNet.uav[46] utilizationCountChargeState 18
scalar OsgEarthNet.uav[46] utilizationCountOverdrawnAfterMission 0
scalar OsgEarthNet.uav[46] utilizationCountIdleState 19
scalar OsgEarthNet.uav[46] utilizationFail 0
scalar OsgEarthNet.uav[46] simulationTime 259200
scalar OsgEarthNet.uav[47] utilizationSecMission 2141.9668622314
scalar OsgEarthNet.uav[47] utilizationSecMaintenance 916.96651144049
scalar OsgEarthNet.uav[47] utilizationSecCharge 11450
scalar OsgEarthNet.uav[47] utilizationSecIdle 244691.06562633
scalar OsgEarthNet.uav[47] utilizationEnergyMission 9851.229347229
scalar OsgEarthNet.uav[47] utilizationEnergyMaintenance 4650.4240264893
scalar OsgEarthNet.uav[47] utilizationEnergyCharge 14501.655273438
scalar OsgEarthNet.uav[47] utilizationEnergyOverdrawMission 0
scalar OsgEarthNet.uav[47] utilizationEnergyOverdrawMaintenance 0
scalar OsgEarthNet.uav[47] utilizationCountMissions 3
scalar OsgEarthNet.uav[47] utilizationCountManeuversMission 34
scalar OsgEarthNet.uav[47] utilizationCountManeuversMaintenance 6
scalar OsgEarthNet.uav[47] utilizationCountChargeState 3
scalar OsgEarthNet.uav[47] utilizationCountOverdrawnAfterMission 0
scalar OsgEarthNet.uav[47] utilizationCountIdleState 4
scalar OsgEarthNet.uav[47] utilizationFail 0
scalar OsgEarthNet.uav[47] simulationTime 259200
scalar OsgEarthNet.uav[48] utilizationSecMission 25671.746655026
scalar OsgEarthNet.uav[48] utilizationSecMaintenance 9427.7705423984
scalar OsgEarthNet.uav[48] utilizationSecCharge 128100
scalar OsgEarthNet.uav[48] utilizationSecIdle 96000.481802575
scalar OsgEarthNet.uav[48] utilizationEnergyMission 118778.11190414
scalar OsgEarthNet.uav[48] utilizationEnergyMaintenance 43282.088291168
scalar OsgEarthNet.uav[48] utilizationEnergyCharge 160658.734375
scalar OsgEarthNet.uav[48] utilizationEnergyOverdrawMission 0
scalar OsgEarthNet.uav[48] utilizationEnergyOverdrawMaintenance 0
scalar OsgEarthNet.uav[48] utilizationCountMissions 34
scalar OsgEarthNet.uav[48] utilizationCountManeuversMission 455
scalar OsgEarthNet.uav[48] utilizationCountManeuversMaintenance 68
scalar OsgEarthNet.uav[48] utilizationCountChargeState 34
scalar OsgEarthNet.uav[48] utilizationCountOverdrawnAfterMission 0
scalar OsgEarthNet.uav[48] utilizationCountIdleState 35
scalar OsgEarthNet.uav[48] utilizationFail 0
scalar OsgEarthNet.uav[48] simulationTime 259200
scalar OsgEarthNet.uav[49] utilizationSecMission 15042.668583793
scalar OsgEarthNet.uav[49] utilizationSecMaintenance 6028.3195871857
scalar OsgEarthNet.uav[49] utilizationSecCharge 77240
scalar OsgEarthNet.uav[49] utilizationSecIdle 160889.01082902
scalar OsgEarthNet.uav[49] utilizationEnergyMission 68252.812767029
scalar OsgEarthNet.uav[49] utilizationEnergyMaintenance 28049.521217346
scalar OsgEarthNet.uav[49] utilizationEnergyCharge 96054.276367188
scalar OsgEarthNet.uav[49] utilizationEnergyOverdrawMission 0
scalar OsgEarthNet.uav[49] utilizationEnergyOverdrawMaintenance 0
scalar OsgEarthNet.uav[49] utilizationCountMissions 21
scalar OsgEarthNet.uav[49] utilizationCountManeuversMission 228
scalar OsgEarthNet.uav[49] utilizationCountManeuversMaintenance 42
scalar OsgEarthNet.uav[49] utilizationCountChargeState 21
scalar OsgEarthNet.uav[49] utilizationCountOverdrawnAfterMission 0
scalar OsgEarthNet.uav[49] utilizationCountIdleState 22
scalar OsgEarthNet.uav[49] utilizationFail 0
scalar OsgEarthNet.uav[49] simulationTime 259200
scalar OsgEarthNet.uav[50] utilizationSecMission 27153.591210017
scalar OsgEarthNet.uav[50] utilizationSecMaintenance 8081.2939807477
scalar OsgEarthNet.uav[50] utilizationSecCharge 129595.80309254
scalar OsgEarthNet.uav[50] utilizationSecIdle 94369.310716698
scalar OsgEarthNet.uav[50] utilizationEnergyMission 125772.66984558
scalar OsgEarthNet.uav[50] utilizationEnergyMaintenance 38726.015621185
scalar OsgEarthNet.uav[50] utilizationEnergyCharge 162434.85375977
scalar OsgEarthNet.uav[50] utilizationEnergyOverdrawMission 0
scalar OsgEarthNet.uav[50] utilizationEnergyOverdrawMaintenance 0
scalar OsgEarthNet.uav[50] utilizationCountMissions 36
scalar OsgEarthNet.uav[50] utilizationCountManeuversMission 415
scalar OsgEarthNet.uav[50] utilizationCountManeuversMaintenance 72
scalar OsgEarthNet.uav[50] utilizationCountChargeState 36
scalar OsgEarthNet.uav[50] utilizationCountOverdrawnAfterMission 0
scalar OsgEarthNet.uav[50] utilizationCountIdleState 32
scalar OsgEarthNet.uav[50] utilizationFail 0
scalar OsgEarthNet.uav[50] simulationTime 259200
scalar OsgEarthNet.uav[51] utilizationSecMission 4798.5067020553
scalar OsgEarthNet.uav[51] utilizationSecMaintenance 2344.5309322787
scalar OsgEarthNet.uav[51] utilizationSecCharge 26670
scalar OsgEarthNet.uav[51] utilizationSecIdle 225386.96136567
scalar OsgEarthNet.uav[51] utilizationEnergyMission 22172.249694824
scalar OsgEarthNet.uav[51] utilizationEnergyMaintenance 11517.228351593
scalar OsgEarthNet.uav[51] utilizationEnergyCharge 33689.473144531
scalar OsgEarthNet.uav[51] utilizationEnergyOverdrawMission 0
scalar OsgEarthNet.uav[51] utilizationEnergyOverdrawMaintenance 0
scalar OsgEarthNet.uav[51] utilizationCountMissions 7
scalar OsgEarthNet.uav[51] utilizationCountManeuversMission 78
scalar OsgEarthNet.uav[51] utilizationCountManeuversMaintenance 14
scalar OsgEarthNet.uav[51] utilizationCountChargeState 7
scalar OsgEarthNet.uav[51] utilizationCountOverdrawnAfterMission 0
scalar OsgEarthNet.uav[51] utilizationCountIdleState 8
scalar OsgEarthNet.uav[51] utilizationFail 0
scalar OsgEarthNet.uav[51] simulationTime 259200
scalar OsgEarthNet.uav[52] utilizationSecMission 20891.337877737
scalar OsgEarthNet.uav[52] utilizationSecMaintenance 6221.1839110934
scalar OsgEarthNet.uav[52] utilizationSecCharge 97950
scalar OsgEarthNet.uav[52] utilizationSecIdle 134137.47721117
scalar OsgEarthNet.uav[52] utilizationEnergyMission 96863.691003298
scalar OsgEarthNet.uav[52] utilizationEnergyMaintenance 28086.072452545
scalar OsgEarthNet.uav[52] utilizationEnergyCharge 122797.68115234
scalar OsgEarthNet.uav[52] utilizationEnergyOverdrawMission 0
scalar OsgEarthNet.uav[52] utilizationEnergyOverdrawMaintenance 0
scalar OsgEarthNet.uav[52] utilizationCountMissions 26
scalar OsgEarthNet.uav[52] utilizationCountManeuversMission 355
scalar OsgEarthNet.uav[52] utilizationCountManeuversMaintenance 53
scalar OsgEarthNet.uav[52] utilizationCountChargeState 26
scalar OsgEarthNet.uav[52] utilizationCountOverdrawnAfterMission 0
scalar OsgEarthNet.uav[52] utilizationCountIdleState 27
scalar OsgEarthNet.uav[52] utilizationFail 0
scalar OsgEarthNet.uav[52] simulationTime 259200
scalar OsgEarthNet.uav[53] utilizationSecMission 15543.950315313
scalar OsgEarthNet.uav[53] utilizationSecMaintenance 6226.3244330002
scalar OsgEarthNet.uav[53] utilizationSecCharge 81950
scalar OsgEarthNet.uav[53] utilizationSecIdle 155479.72425169
scalar OsgEarthNet.uav[53] utilizationEnergyMission 72523.977371216
scalar OsgEarthNet.uav[53] utilizationEnergyMaintenance 29890.780433655
scalar OsgEarthNet.uav[53] utilizationEnergyCharge 102401.58642578
scalar OsgEarthNet.uav[53] utilizationEnergyOverdrawMission 0
scalar OsgEarthNet.uav[53] utilizationEnergyOverdrawMaintenance 0
scalar OsgEarthNet.uav[53] utilizationCountMissions 22
scalar OsgEarthNet.uav[53] utilizationCountManeuversMission 244
scalar OsgEarthNet.uav[53] utilizationCountManeuversMaintenance 43
scalar OsgEarthNet.uav[53] utilizationCountChargeState 22
scalar OsgEarthNet.uav[53] utilizationCountOverdrawnAfterMission 0
scalar OsgEarthNet.uav[53] utilizationCountIdleState 22
scalar OsgEarthNet.uav[53] utilizationFail 0
scalar OsgEarthNet.uav[53] simulationTime 259200
scalar OsgEarthNet.uav[54] utilizationSecMission 6445.0210520717
scalar OsgEarthNet.uav[54] utilizationSecMaintenance 3293.1385732723
scalar OsgEarthNet.uav[54] utilizationSecCharge 36390
scalar OsgEarthNet.uav[54] utilizationSecIdle 213071.83937466
scalar OsgEarthNet.uav[54] utilizationEnergyMission 30556.542022705
scalar OsgEarthNet.uav[54] utilizationEnergyMaintenance 16053.184391022
scalar OsgEarthNet.uav[54] utilizationEnergyCharge 46609.735839844
scalar OsgEarthNet.uav[54] utilizationEnergyOverdrawMission 0
scalar OsgEarthNet.uav[54] utilizationEnergyOverdrawMaintenance 0
scalar OsgEarthNet.uav[54] utilizationCountMissions 10
scalar OsgEarthNet.uav[54] utilizationCountManeuversMission 109
scalar OsgEarthNet.uav[54] utilizationCountManeuversMaintenance 20
scalar OsgEarthNet.uav[54] utilizationCountChargeState 10
scalar OsgEarthNet.uav[54] utilizationCountOverdrawnAfterMission 0
scalar OsgEarthNet.uav[54] utilizationCountIdleState 7
scalar OsgEarthNet.uav[54] utilizationFail 0
scalar OsgEarthNet.uav[54] simulationTime 259200
scalar OsgEarthNet.uav[55] utilizationSecMission 19940.392048403
scalar OsgEarthNet.uav[55] utilizationSecMaintenance 7826.363262286
scalar OsgEarthNet.uav[55] utilizationSecCharge 101640
scalar OsgEarthNet.uav[55] utilizationSecIdle 129793.24368931
scalar OsgEarthNet.uav[55] utilizationEnergyMission 91998.773429871
scalar OsgEarthNet.uav[55] utilizationEnergyMaintenance 35722.542633057
scalar OsgEarthNet.uav[55] utilizationEnergyCharge 127426.13720703
scalar OsgEarthNet.uav[55] utilizationEnergyOverdrawMission 0
scalar OsgEarthNet.uav[55] utilizationEnergyOverdrawMaintenance 0
scalar OsgEarthNet.uav[55] utilizationCountMissions 27
scalar OsgEarthNet.uav[55] utilizationCountManeuversMission 354
scalar OsgEarthNet.uav[55] utilizationCountManeuversMaintenance 54
scalar OsgEarthNet.uav[55] utilizationCountChargeState 27
scalar OsgEarthNet.uav[55] utilizationCountOverdrawnAfterMission 0
scalar OsgEarthNet.uav[55] utilizationCountIdleState 28
scalar OsgEarthNet.uav[55] utilizationFail 0
scalar OsgEarthNet.uav[55] simulationTime 259200
scalar OsgEarthNet.uav[56] utilizationSecMission 28867.738451945
scalar OsgEarthNet.uav[56] utilizationSecMaintenance 9078.8684159249
scalar OsgEarthNet.uav[56] utilizationSecCharge 139150
scalar OsgEarthNet.uav[56] utilizationSecIdle 82103.39213213
scalar OsgEarthNet.uav[56] utilizationEnergyMission 131817.30871396
scalar OsgEarthNet.uav[56] utilizationEnergyMaintenance 44000.992450714
scalar OsgEarthNet.uav[56] utilizationEnergyCharge 175127.07373047
scalar OsgEarthNet.uav[56] utilizationEnergyOverdrawMission 0
scalar OsgEarthNet.uav[56] utilizationEnergyOverdrawMaintenance 0
scalar OsgEarthNet.uav[56] utilizationCountMissions 38
scalar OsgEarthNet.uav[56] utilizationCountManeuversMission 440
scalar OsgEarthNet.uav[56] utilizationCountManeuversMaintenance 77
scalar OsgEarthNet.uav[56] utilizationCountChargeState 38
scalar OsgEarthNet.uav[56] utilizationCountOverdrawnAfterMission 0
scalar OsgEarthNet.uav[56] utilizationCountIdleState 32
scalar OsgEarthNet.uav[56] utilizationFail 0
scalar OsgEarthNet.uav[56] simulationTime 259200
scalar OsgEarthNet.uav[57] utilizationSecMission 1966.6599055051
scalar OsgEarthNet.uav[57] utilizationSecMaintenance 1004.2356137048
scalar OsgEarthNet.uav[57] utilizationSecCharge 11290
scalar OsgEarthNet.uav[57] utilizationSecIdle 244939.10348079
scalar OsgEarthNet.uav[57] utilizationEnergyMission 9195.7329940796
scalar OsgEarthNet.uav[57] utilizationEnergyMaintenance 4953.7021217346
scalar OsgEarthNet.uav[57] utilizationEnergyCharge 14149.439941406
scalar OsgEarthNet.uav[57] utilizationEnergyOverdrawMission 0
scalar OsgEarthNet.uav[57] utilizationEnergyOverdrawMaintenance 0
scalar OsgEarthNet.uav[57] utilizationCountMissions 3
scalar OsgEarthNet.uav[57] utilizationCountManeuversMission 30
scalar OsgEarthNet.uav[57] utilizationCountManeuversMaintenance 6
scalar OsgEarthNet.uav[57] utilizationCountChargeState 3
scalar OsgEarthNet.uav[57] utilizationCountOverdrawnAfterMission 0
scalar OsgEarthNet.uav[57] utilizationCountIdleState 4
scalar OsgEarthNet.uav[57] utilizationFail 0
scalar OsgEarthNet.uav[57] simulationTime 259200
scalar OsgEarthNet.uav[58] utilizationSecMission 4817.1130285848
scalar OsgEarthNet.uav[58] utilizationSecMaintenance 2188.9082986292
scalar OsgEarthNet.uav[58] utilizationSecCharge 25690
scalar OsgEarthNet.uav[58] utilizationSecIdle 226503.97767279
scalar OsgEarthNet.uav[58] utilizationEnergyMission 22057.665596008
scalar OsgEarthNet.uav[58] utilizationEnergyMaintenance 10072.750518799
scalar OsgEarthNet.uav[58] utilizationEnergyCharge 32130.416503906
scalar OsgEarthNet.uav[58] utilizationEnergyOverdrawMission 0
scalar OsgEarthNet.uav[58] utilizationEnergyOverdrawMaintenance 0
scalar OsgEarthNet.uav[58] utilizationCountMissions 7
scalar OsgEarthNet.uav[58] utilizationCountManeuversMission 72
scalar OsgEarthNet.uav[58] utilizationCountManeuversMaintenance 14
scalar OsgEarthNet.uav[58] utilizationCountChargeState 7
scalar OsgEarthNet.uav[58] utilizationCountOverdrawnAfterMission 0
scalar OsgEarthNet.uav[58] utilizationCountIdleState 7
scalar OsgEarthNet.uav[58] utilizationFail 0
scalar OsgEarthNet.uav[58] simulationTime 259200
scalar OsgEarthNet.uav[59] utilizationSecMission 5425.6260606616
scalar OsgEarthNet.uav[59] utilizationSecMaintenance 2764.0135186648
scalar OsgEarthNet.uav[59] utilizationSecCharge 30560
scalar OsgEarthNet.uav[59] utilizationSecIdle 220450.35942067
scalar OsgEarthNet.uav[59] utilizationEnergyMission 25402.144477844
scalar OsgEarthNet.uav[59] utilizationEnergyMaintenance 13137.429424286
scalar OsgEarthNet.uav[59] utilizationEnergyCharge 38539.576660156
scalar OsgEarthNet.uav[59] utilizationEnergyOverdrawMission 0
scalar OsgEarthNet.uav[59] utilizationEnergyOverdrawMaintenance 0
scalar OsgEarthNet.uav[59] utilizationCountMissions 8
scalar OsgEarthNet.uav[59] utilizationCountManeuversMission 91
scalar OsgEarthNet.uav[59] utilizationCountManeuversMaintenance 16
scalar OsgEarthNet.uav[59] utilizationCountChargeState 8
scalar OsgEarthNet.uav[59] utilizationCountOverdrawnAfterMission 0
scalar OsgEarthNet.uav[59] utilizationCountIdleState 9
scalar OsgEarthNet.uav[59] utilizationFail 0
scalar OsgEarthNet.uav[59] simulationTime 259200
scalar OsgEarthNet.uav[60] utilizationSecMission 5434.1688779265
scalar OsgEarthNet.uav[60] utilizationSecMaintenance 2607.4578943701
scalar OsgEarthNet.uav[60] utilizationSecCharge 29700
scalar OsgEarthNet.uav[60] utilizationSecIdle 221458.3722277
scalar OsgEarthNet.uav[60] utilizationEnergyMission 24924.987472534
scalar OsgEarthNet.uav[60] utilizationEnergyMaintenance 12096.314758301
scalar OsgEarthNet.uav[60] utilizationEnergyCharge 37021.299804688
scalar OsgEarthNet.uav[60] utilizationEnergyOverdrawMission 0
scalar OsgEarthNet.uav[60] utilizationEnergyOverdrawMaintenance 0
scalar OsgEarthNet.uav[60] utilizationCountMissions 8
scalar OsgEarthNet.uav[60] utilizationCountManeuversMission 90
scalar OsgEarthNet.uav[60] utilizationCountManeuversMaintenance 15
scalar OsgEarthNet.uav[60] utilizationCountChargeState 8
scalar OsgEarthNet.uav[60] utilizationCountOverdrawnAfterMission 0
scalar OsgEarthNet.uav[60] utilizationCountIdleState 9
scalar OsgEarthNet.uav[60] utilizationFail 0
scalar OsgEarthNet.uav[60] simulationTime 259200
scalar OsgEarthNet.uav[61] utilizationSecMission 1892.3089596288
scalar OsgEarthNet.uav[61] utilizationSecMaintenance 1056.8111118188
scalar OsgEarthNet.uav[61] utilizationSecCharge 10850
scalar OsgEarthNet.uav[61] utilizationSecIdle 245400.87892855
scalar OsgEarthNet.uav[61] utilizationEnergyMission 8206.2279052734
scalar OsgEarthNet.uav[61] utilizationEnergyMaintenance 5153.8767738342
scalar OsgEarthNet.uav[61] utilizationEnergyCharge 13360.105957031
scalar OsgEarthNet.uav[61] utilizationEnergyOverdrawMission 0
scalar OsgEarthNet.uav[61] utilizationEnergyOverdrawMaintenance 0
scalar OsgEarthNet.uav[61] utilizationCountMissions 3
scalar OsgEarthNet.uav[61] utilizationCountManeuversMission 28
scalar OsgEarthNet.uav[61] utilizationCountManeuversMaintenance 6
scalar OsgEarthNet.uav[61] utilizationCountChargeState 3
scalar OsgEarthNet.uav[61] utilizationCountOverdrawnAfterMission 0
scalar OsgEarthNet.uav[61] utilizationCountIdleState 4
scalar OsgEarthNet.uav[61] utilizationFail 0
scalar OsgEarthNet.uav[61] simulationTime 259200
scalar OsgEarthNet.uav[62] utilizationSecMission 25346.768149436
scalar OsgEarthNet.uav[62] utilizationSecMaintenance 9499.9319384684
scalar OsgEarthNet.uav[62] utilizationSecCharge 123809.82439561
scalar OsgEarthNet.uav[62] utilizationSecIdle 100543.47451648
scalar OsgEarthNet.uav[62] utilizationEnergyMission 115971.91857147
scalar OsgEarthNet.uav[62] utilizationEnergyMaintenance 43098.201435089
scalar OsgEarthNet.uav[62] utilizationEnergyCharge 155101.67364502
scalar OsgEarthNet.uav[62] utilizationEnergyOverdrawMission 0
scalar OsgEarthNet.uav[62] utilizationEnergyOverdrawMaintenance 0
scalar OsgEarthNet.uav[62] utilizationCountMissions 34
scalar OsgEarthNet.uav[62] utilizationCountManeuversMission 452
scalar OsgEarthNet.uav[62] utilizationCountManeuversMaintenance 68
scalar OsgEarthNet.uav[62] utilizationCountChargeState 34
scalar OsgEarthNet.uav[62] utilizationCountOverdrawnAfterMission 0
scalar OsgEarthNet.uav[62] utilizationCountIdleState 34
scalar OsgEarthNet.uav[62] utilizationFail 0
scalar OsgEarthNet.uav[62] simulationTime 259200
scalar OsgEarthNet.uav[63] utilizationSecMission 8445.133289948
scalar OsgEarthNet.uav[63] utilizationSecMaintenance 3777.0696598593
scalar OsgEarthNet.uav[63] utilizationSecCharge 45320
scalar OsgEarthNet.uav[63] utilizationSecIdle 201657.79605019
scalar OsgEarthNet.uav[63] utilizationEnergyMission 38905.530670166
scalar OsgEarthNet.uav[63] utilizationEnergyMaintenance 17953.356441498
scalar OsgEarthNet.uav[63] utilizationEnergyCharge 56858.894042969
scalar OsgEarthNet.uav[63] utilizationEnergyOverdrawMission 0
scalar OsgEarthNet.uav[63] utilizationEnergyOverdrawMaintenance 0
scalar OsgEarthNet.uav[63] utilizationCountMissions 12
scalar OsgEarthNet.uav[63] utilizationCountManeuversMission 134
scalar OsgEarthNet.uav[63] utilizationCountManeuversMaintenance 24
scalar OsgEarthNet.uav[63] utilizationCountChargeState 12
scalar OsgEarthNet.uav[63] utilizationCountOverdrawnAfterMission 0
scalar OsgEarthNet.uav[63] utilizationCountIdleState 13
scalar OsgEarthNet.uav[63] utilizationFail 0
scalar OsgEarthNet.uav[63] simulationTime 259200
scalar OsgEarthNet.uav[64] utilizationSecMission 12282.066770031
scalar OsgEarthNet.uav[64] utilizationSecMaintenance 5522.5906633805
scalar OsgEarthNet.uav[64] utilizationSecCharge 66390
scalar OsgEarthNet.uav[64] utilizationSecIdle 175005.34156659
scalar OsgEarthNet.uav[64] utilizationEnergyMission 56795.87399292
scalar OsgEarthNet.uav[64] utilizationEnergyMaintenance 26353.799888611
scalar OsgEarthNet.uav[64] utilizationEnergyCharge 83149.655761719
scalar OsgEarthNet.uav[64] utilizationEnergyOverdrawMission 0
scalar OsgEarthNet.uav[64] utilizationEnergyOverdrawMaintenance 0
scalar OsgEarthNet.uav[64] utilizationCountMissions 18
scalar OsgEarthNet.uav[64] utilizationCountManeuversMission 199
scalar OsgEarthNet.uav[64] utilizationCountManeuversMaintenance 36
scalar OsgEarthNet.uav[64] utilizationCountChargeState 18
scalar OsgEarthNet.uav[64] utilizationCountOverdrawnAfterMission 0
scalar OsgEarthNet.uav[64] utilizationCountIdleState 16
scalar OsgEarthNet.uav[64] utilizationFail 0
scalar OsgEarthNet.uav[64] simulationTime 259200
scalar OsgEarthNet.uav[65] utilizationSecMission 24177.526548529
scalar OsgEarthNet.uav[65] utilizationSecMaintenance 8527.1315748225
[...]
scalar OsgEarthNet.uav[82] utilizationSecIdle 85772.052370363
scalar OsgEarthNet.uav[82] utilizationEnergyMission 131104.72971725
scalar OsgEarthNet.uav[82] utilizationEnergyMaintenance 39914.309337616
scalar OsgEarthNet.uav[82] utilizationEnergyCharge 170861.375
scalar OsgEarthNet.uav[82] utilizationEnergyOverdrawMission 0
scalar OsgEarthNet.uav[82] utilizationEnergyOverdrawMaintenance 0
scalar OsgEarthNet.uav[82] utilizationCountMissions 36
scalar OsgEarthNet.uav[82] utilizationCountManeuversMission 484
scalar OsgEarthNet.uav[82] utilizationCountManeuversMaintenance 72
scalar OsgEarthNet.uav[82] utilizationCountChargeState 36
scalar OsgEarthNet.uav[82] utilizationCountOverdrawnAfterMission 0
scalar OsgEarthNet.uav[82] utilizationCountIdleState 37
scalar OsgEarthNet.uav[82] utilizationFail 0
scalar OsgEarthNet.uav[82] simulationTime 259200
scalar OsgEarthNet.uav[83] utilizationSecMission 14635.869351828
scalar OsgEarthNet.uav[83] utilizationSecMaintenance 5126.3199935411
scalar OsgEarthNet.uav[83] utilizationSecCharge 70694.735613483
scalar OsgEarthNet.uav[83] utilizationSecIdle 168743.07404115
scalar OsgEarthNet.uav[83] utilizationEnergyMission 68329.492874145
scalar OsgEarthNet.uav[83] utilizationEnergyMaintenance 24900.691085815
scalar OsgEarthNet.uav[83] utilizationEnergyCharge 89802.657226562
scalar OsgEarthNet.uav[83] utilizationEnergyOverdrawMission 0
scalar OsgEarthNet.uav[83] utilizationEnergyOverdrawMaintenance 0
scalar OsgEarthNet.uav[83] utilizationCountMissions 20
scalar OsgEarthNet.uav[83] utilizationCountManeuversMission 230
scalar OsgEarthNet.uav[83] utilizationCountManeuversMaintenance 40
scalar OsgEarthNet.uav[83] utilizationCountChargeState 20
scalar OsgEarthNet.uav[83] utilizationCountOverdrawnAfterMission 0
scalar OsgEarthNet.uav[83] utilizationCountIdleState 15
scalar OsgEarthNet.uav[83] utilizationFail 0
scalar OsgEarthNet.uav[83] simulationTime 259200
scalar OsgEarthNet.uav[84] utilizationSecMission 21247.934796416
scalar OsgEarthNet.uav[84] utilizationSecMaintenance 7612.5608407327
scalar OsgEarthNet.uav[84] utilizationSecCharge 107680
scalar OsgEarthNet.uav[84] utilizationSecIdle 122659.50336285
scalar OsgEarthNet.uav[84] utilizationEnergyMission 97245.719955444
scalar OsgEarthNet.uav[84] utilizationEnergyMaintenance 37169.089942932
scalar OsgEarthNet.uav[84] utilizationEnergyCharge 134414.80810547
scalar OsgEarthNet.uav[84] utilizationEnergyOverdrawMission 0
scalar OsgEarthNet.uav[84] utilizationEnergyOverdrawMaintenance 0
scalar OsgEarthNet.uav[84] utilizationCountMissions 29
scalar OsgEarthNet.uav[84] utilizationCountManeuversMission 331
scalar OsgEarthNet.uav[84] utilizationCountManeuversMaintenance 58
scalar OsgEarthNet.uav[84] utilizationCountChargeState 29
scalar OsgEarthNet.uav[84] utilizationCountOverdrawnAfterMission 0
scalar OsgEarthNet.uav[84] utilizationCountIdleState 29
scalar OsgEarthNet.uav[84] utilizationFail 0
scalar OsgEarthNet.uav[84] simulationTime 259200
scalar OsgEarthNet.uav[85] utilizationSecMission 28033.160825086
scalar OsgEarthNet.uav[85] utilizationSecMaintenance 8299.5864634213
scalar OsgEarthNet.uav[85] utilizationSecCharge 132520
scalar OsgEarthNet.uav[85] utilizationSecIdle 90347.251711493
scalar OsgEarthNet.uav[85] utilizationEnergyMission 128914.38101196
scalar OsgEarthNet.uav[85] utilizationEnergyMaintenance 37617.765853882
scalar OsgEarthNet.uav[85] utilizationEnergyCharge 166573.47412109
scalar OsgEarthNet.uav[85] utilizationEnergyOverdrawMission 0
scalar OsgEarthNet.uav[85] utilizationEnergyOverdrawMaintenance 0
scalar OsgEarthNet.uav[85] utilizationCountMissions 35
scalar OsgEarthNet.uav[85] utilizationCountManeuversMission 475
scalar OsgEarthNet.uav[85] utilizationCountManeuversMaintenance 70
scalar OsgEarthNet.uav[85] utilizationCountChargeState 35
scalar OsgEarthNet.uav[85] utilizationCountOverdrawnAfterMission 0
scalar OsgEarthNet.uav[85] utilizationCountIdleState 36
scalar OsgEarthNet.uav[85] utilizationFail 0
scalar OsgEarthNet.uav[85] simulationTime 259200
scalar OsgEarthNet.uav[86] utilizationSecMission 9591.4546893839
scalar OsgEarthNet.uav[86] utilizationSecMaintenance 3542.551676383
scalar OsgEarthNet.uav[86] utilizationSecCharge 48630
scalar OsgEarthNet.uav[86] utilizationSecIdle 197435.99263423
scalar OsgEarthNet.uav[86] utilizationEnergyMission 43966.488838196
scalar OsgEarthNet.uav[86] utilizationEnergyMaintenance 16970.668769836
scalar OsgEarthNet.uav[86] utilizationEnergyCharge 60788.260742188
scalar OsgEarthNet.uav[86] utilizationEnergyOverdrawMission 0
scalar OsgEarthNet.uav[86] utilizationEnergyOverdrawMaintenance 0
scalar OsgEarthNet.uav[86] utilizationCountMissions 13
scalar OsgEarthNet.uav[86] utilizationCountManeuversMission 150
scalar OsgEarthNet.uav[86] utilizationCountManeuversMaintenance 26
scalar OsgEarthNet.uav[86] utilizationCountChargeState 13
scalar OsgEarthNet.uav[86] utilizationCountOverdrawnAfterMission 0
scalar OsgEarthNet.uav[86] utilizationCountIdleState 14
scalar OsgEarthNet.uav[86] utilizationFail 0
scalar OsgEarthNet.uav[86] simulationTime 259200
scalar OsgEarthNet.uav[87] utilizationSecMission 3855.3734307606
scalar OsgEarthNet.uav[87] utilizationSecMaintenance 2271.0126227781
scalar OsgEarthNet.uav[87] utilizationSecCharge 22930
scalar OsgEarthNet.uav[87] utilizationSecIdle 230143.61294646
scalar OsgEarthNet.uav[87] utilizationEnergyMission 17984.270698547
scalar OsgEarthNet.uav[87] utilizationEnergyMaintenance 10846.57478714
scalar OsgEarthNet.uav[87] utilizationEnergyCharge 28830.838378906
scalar OsgEarthNet.uav[87] utilizationEnergyOverdrawMission 0
scalar OsgEarthNet.uav[87] utilizationEnergyOverdrawMaintenance 0
scalar OsgEarthNet.uav[87] utilizationCountMissions 6
scalar OsgEarthNet.uav[87] utilizationCountManeuversMission 65
scalar OsgEarthNet.uav[87] utilizationCountManeuversMaintenance 12
scalar OsgEarthNet.uav[87] utilizationCountChargeState 6
scalar OsgEarthNet.uav[87] utilizationCountOverdrawnAfterMission 0
scalar OsgEarthNet.uav[87] utilizationCountIdleState 7
scalar OsgEarthNet.uav[87] utilizationFail 0
scalar OsgEarthNet.uav[87] simulationTime 259200
scalar OsgEarthNet.uav[88] utilizationSecMission 28799.988172723
scalar OsgEarthNet.uav[88] utilizationSecMaintenance 8665.8478500294
scalar OsgEarthNet.uav[88] utilizationSecCharge 133870.96460324
scalar OsgEarthNet.uav[88] utilizationSecIdle 87863.198374005
scalar OsgEarthNet.uav[88] utilizationEnergyMission 132361.82440186
scalar OsgEarthNet.uav[88] utilizationEnergyMaintenance 39767.102275848
scalar OsgEarthNet.uav[88] utilizationEnergyCharge 168907.54223633
scalar OsgEarthNet.uav[88] utilizationEnergyOverdrawMission 0
scalar OsgEarthNet.uav[88] utilizationEnergyOverdrawMaintenance 0
scalar OsgEarthNet.uav[88] utilizationCountMissions 36
scalar OsgEarthNet.uav[88] utilizationCountManeuversMission 489
scalar OsgEarthNet.uav[88] utilizationCountManeuversMaintenance 72
scalar OsgEarthNet.uav[88] utilizationCountChargeState 36
scalar OsgEarthNet.uav[88] utilizationCountOverdrawnAfterMission 0
scalar OsgEarthNet.uav[88] utilizationCountIdleState 36
scalar OsgEarthNet.uav[88] utilizationFail 0
scalar OsgEarthNet.uav[88] simulationTime 259200
scalar OsgEarthNet.uav[89] utilizationSecMission 30026.156071778
scalar OsgEarthNet.uav[89] utilizationSecMaintenance 9532.635078677
scalar OsgEarthNet.uav[89] utilizationSecCharge 145605.00947462
scalar OsgEarthNet.uav[89] utilizationSecIdle 74036.19837492
scalar OsgEarthNet.uav[89] utilizationEnergyMission 139598.07906342
scalar OsgEarthNet.uav[89] utilizationEnergyMaintenance 46021.253185272
scalar OsgEarthNet.uav[89] utilizationEnergyCharge 184075.26635742
scalar OsgEarthNet.uav[89] utilizationEnergyOverdrawMission 0
scalar OsgEarthNet.uav[89] utilizationEnergyOverdrawMaintenance 0
scalar OsgEarthNet.uav[89] utilizationCountMissions 40
scalar OsgEarthNet.uav[89] utilizationCountManeuversMission 453
scalar OsgEarthNet.uav[89] utilizationCountManeuversMaintenance 80
scalar OsgEarthNet.uav[89] utilizationCountChargeState 40
scalar OsgEarthNet.uav[89] utilizationCountOverdrawnAfterMission 0
scalar OsgEarthNet.uav[89] utilizationCountIdleState 34
scalar OsgEarthNet.uav[89] utilizationFail 0
scalar OsgEarthNet.uav[89] simulationTime 259200
scalar OsgEarthNet.uav[90] utilizationSecMission 9177.2349933164
scalar OsgEarthNet.uav[90] utilizationSecMaintenance 3980.9370256032
scalar OsgEarthNet.uav[90] utilizationSecCharge 48330
scalar OsgEarthNet.uav[90] utilizationSecIdle 197711.82698108
scalar OsgEarthNet.uav[90] utilizationEnergyMission 42066.217140198
scalar OsgEarthNet.uav[90] utilizationEnergyMaintenance 18322.819618225
scalar OsgEarthNet.uav[90] utilizationEnergyCharge 60389.047851562
scalar OsgEarthNet.uav[90] utilizationEnergyOverdrawMission 0
scalar OsgEarthNet.uav[90] utilizationEnergyOverdrawMaintenance 0
scalar OsgEarthNet.uav[90] utilizationCountMissions 13
scalar OsgEarthNet.uav[90] utilizationCountManeuversMission 145
scalar OsgEarthNet.uav[90] utilizationCountManeuversMaintenance 26
scalar OsgEarthNet.uav[90] utilizationCountChargeState 13
scalar OsgEarthNet.uav[90] utilizationCountOverdrawnAfterMission 0
scalar OsgEarthNet.uav[90] utilizationCountIdleState 14
scalar OsgEarthNet.uav[90] utilizationFail 0
scalar OsgEarthNet.uav[90] simulationTime 259200
scalar OsgEarthNet.uav[91] utilizationSecMission 1979.962437992
scalar OsgEarthNet.uav[91] utilizationSecMaintenance 1008.106700213
scalar OsgEarthNet.uav[91] utilizationSecCharge 11390
scalar OsgEarthNet.uav[91] utilizationSecIdle 244821.9298618
scalar OsgEarthNet.uav[91] utilizationEnergyMission 9198.9512939453
scalar OsgEarthNet.uav[91] utilizationEnergyMaintenance 5097.1271095276
scalar OsgEarthNet.uav[91] utilizationEnergyCharge 14296.077148438
scalar OsgEarthNet.uav[91] utilizationEnergyOverdrawMission 0
scalar OsgEarthNet.uav[91] utilizationEnergyOverdrawMaintenance 0
scalar OsgEarthNet.uav[91] utilizationCountMissions 3
scalar OsgEarthNet.uav[91] utilizationCountManeuversMission 30
scalar OsgEarthNet.uav[91] utilizationCountManeuversMaintenance 6
scalar OsgEarthNet.uav[91] utilizationCountChargeState 3
scalar OsgEarthNet.uav[91] utilizationCountOverdrawnAfterMission 0
scalar OsgEarthNet.uav[91] utilizationCountIdleState 4
scalar OsgEarthNet.uav[91] utilizationFail 0
scalar OsgEarthNet.uav[91] simulationTime 259200
scalar OsgEarthNet.uav[92] utilizationSecMission 10975.008176985
scalar OsgEarthNet.uav[92] utilizationSecMaintenance 5796.5250956631
scalar OsgEarthNet.uav[92] utilizationSecCharge 62320
scalar OsgEarthNet.uav[92] utilizationSecIdle 180108.46572735
scalar OsgEarthNet.uav[92] utilizationEnergyMission 51404.070823669
scalar OsgEarthNet.uav[92] utilizationEnergyMaintenance 27045.767051697
scalar OsgEarthNet.uav[92] utilizationEnergyCharge 78449.848632812
scalar OsgEarthNet.uav[92] utilizationEnergyOverdrawMission 0
scalar OsgEarthNet.uav[92] utilizationEnergyOverdrawMaintenance 0
scalar OsgEarthNet.uav[92] utilizationCountMissions 17
scalar OsgEarthNet.uav[92] utilizationCountManeuversMission 188
scalar OsgEarthNet.uav[92] utilizationCountManeuversMaintenance 34
scalar OsgEarthNet.uav[92] utilizationCountChargeState 17
scalar OsgEarthNet.uav[92] utilizationCountOverdrawnAfterMission 0
scalar OsgEarthNet.uav[92] utilizationCountIdleState 12
scalar OsgEarthNet.uav[92] utilizationFail 0
scalar OsgEarthNet.uav[92] simulationTime 259200
scalar OsgEarthNet.uav[93] utilizationSecMission 13290.180858745
scalar OsgEarthNet.uav[93] utilizationSecMaintenance 5896.4608904071
scalar OsgEarthNet.uav[93] utilizationSecCharge 70850
scalar OsgEarthNet.uav[93] utilizationSecIdle 169163.35725085
scalar OsgEarthNet.uav[93] utilizationEnergyMission 61922.23109436
scalar OsgEarthNet.uav[93] utilizationEnergyMaintenance 27553.394657135
scalar OsgEarthNet.uav[93] utilizationEnergyCharge 89366.175292969
scalar OsgEarthNet.uav[93] utilizationEnergyOverdrawMission 0
scalar OsgEarthNet.uav[93] utilizationEnergyOverdrawMaintenance 0
scalar OsgEarthNet.uav[93] utilizationCountMissions 19
scalar OsgEarthNet.uav[93] utilizationCountManeuversMission 211
scalar OsgEarthNet.uav[93] utilizationCountManeuversMaintenance 38
scalar OsgEarthNet.uav[93] utilizationCountChargeState 19
scalar OsgEarthNet.uav[93] utilizationCountOverdrawnAfterMission 0
scalar OsgEarthNet.uav[93] utilizationCountIdleState 19
scalar OsgEarthNet.uav[93] utilizationFail 0
scalar OsgEarthNet.uav[93] simulationTime 259200
scalar OsgEarthNet.uav[94] utilizationSecMission 9019.2312789587
scalar OsgEarthNet.uav[94] utilizationSecMaintenance 5001.80689214
scalar OsgEarthNet.uav[94] utilizationSecCharge 51960
scalar OsgEarthNet.uav[94] utilizationSecIdle 193218.9608289
scalar OsgEarthNet.uav[94] utilizationEnergyMission 42201.907409668
scalar OsgEarthNet.uav[94] utilizationEnergyMaintenance 23641.964374542
scalar OsgEarthNet.uav[94] utilizationEnergyCharge 65843.875488281
scalar OsgEarthNet.uav[94] utilizationEnergyOverdrawMission 0
scalar OsgEarthNet.uav[94] utilizationEnergyOverdrawMaintenance 0
scalar OsgEarthNet.uav[94] utilizationCountMissions 14
scalar OsgEarthNet.uav[94] utilizationCountManeuversMission 155
scalar OsgEarthNet.uav[94] utilizationCountManeuversMaintenance 28
scalar OsgEarthNet.uav[94] utilizationCountChargeState 14
scalar OsgEarthNet.uav[94] utilizationCountOverdrawnAfterMission 0
scalar OsgEarthNet.uav[94] utilizationCountIdleState 14
scalar OsgEarthNet.uav[94] utilizationFail 0
scalar OsgEarthNet.uav[94] simulationTime 259200
scalar OsgEarthNet.uav[95] utilizationSecMission 27877.471312249
scalar OsgEarthNet.uav[95] utilizationSecMaintenance 10233.861489724
scalar OsgEarthNet.uav[95] utilizationSecCharge 137773.21054462
scalar OsgEarthNet.uav[95] utilizationSecIdle 83315.455653403
scalar OsgEarthNet.uav[95] utilizationEnergyMission 129123.31010437
scalar OsgEarthNet.uav[95] utilizationEnergyMaintenance 47164.024971008
scalar OsgEarthNet.uav[95] utilizationEnergyCharge 173746.8425293
scalar OsgEarthNet.uav[95] utilizationEnergyOverdrawMission 0
scalar OsgEarthNet.uav[95] utilizationEnergyOverdrawMaintenance 0
scalar OsgEarthNet.uav[95] utilizationCountMissions 37
scalar OsgEarthNet.uav[95] utilizationCountManeuversMission 492
scalar OsgEarthNet.uav[95] utilizationCountManeuversMaintenance 74
scalar OsgEarthNet.uav[95] utilizationCountChargeState 37
scalar OsgEarthNet.uav[95] utilizationCountOverdrawnAfterMission 0
scalar OsgEarthNet.uav[95] utilizationCountIdleState 37
scalar OsgEarthNet.uav[95] utilizationFail 0
scalar OsgEarthNet.uav[95] simulationTime 259200
scalar OsgEarthNet.uav[96] utilizationSecMission 3398.3256627047
scalar OsgEarthNet.uav[96] utilizationSecMaintenance 1665.3375361861
scalar OsgEarthNet.uav[96] utilizationSecCharge 18850
scalar OsgEarthNet.uav[96] utilizationSecIdle 235286.33580111
scalar OsgEarthNet.uav[96] utilizationEnergyMission 15723.90322113
scalar OsgEarthNet.uav[96] utilizationEnergyMaintenance 8005.2219619751
scalar OsgEarthNet.uav[96] utilizationEnergyCharge 23729.129882812
scalar OsgEarthNet.uav[96] utilizationEnergyOverdrawMission 0
scalar OsgEarthNet.uav[96] utilizationEnergyOverdrawMaintenance 0
scalar OsgEarthNet.uav[96] utilizationCountMissions 5
scalar OsgEarthNet.uav[96] utilizationCountManeuversMission 53
scalar OsgEarthNet.uav[96] utilizationCountManeuversMaintenance 10
scalar OsgEarthNet.uav[96] utilizationCountChargeState 5
scalar OsgEarthNet.uav[96] utilizationCountOverdrawnAfterMission 0
scalar OsgEarthNet.uav[96] utilizationCountIdleState 6
scalar OsgEarthNet.uav[96] utilizationFail 0
scalar OsgEarthNet.uav[96] simulationTime 259200
scalar OsgEarthNet.uav[97] utilizationSecMission 3649.3475182458
scalar OsgEarthNet.uav[97] utilizationSecMaintenance 2330.6467407084
scalar OsgEarthNet.uav[97] utilizationSecCharge 22660
scalar OsgEarthNet.uav[97] utilizationSecIdle 230560.00474105
scalar OsgEarthNet.uav[97] utilizationEnergyMission 17170.653152466
scalar OsgEarthNet.uav[97] utilizationEnergyMaintenance 11205.803974152
scalar OsgEarthNet.uav[97] utilizationEnergyCharge 28376.470703125
scalar OsgEarthNet.uav[97] utilizationEnergyOverdrawMission 0
scalar OsgEarthNet.uav[97] utilizationEnergyOverdrawMaintenance 0
scalar OsgEarthNet.uav[97] utilizationCountMissions 6
scalar OsgEarthNet.uav[97] utilizationCountManeuversMission 58
scalar OsgEarthNet.uav[97] utilizationCountManeuversMaintenance 12
scalar OsgEarthNet.uav[97] utilizationCountChargeState 6
scalar OsgEarthNet.uav[97] utilizationCountOverdrawnAfterMission 0
scalar OsgEarthNet.uav[97] utilizationCountIdleState 7
scalar OsgEarthNet.uav[97] utilizationFail 0
scalar OsgEarthNet.uav[97] simulationTime 259200
scalar OsgEarthNet.uav[98] utilizationSecMission 28804.297459151
scalar OsgEarthNet.uav[98] utilizationSecMaintenance 8333.1683445492
scalar OsgEarthNet.uav[98] utilizationSecCharge 135130
scalar OsgEarthNet.uav[98] utilizationSecIdle 86932.5331963
scalar OsgEarthNet.uav[98] utilizationEnergyMission 132923.07335744
scalar OsgEarthNet.uav[98] utilizationEnergyMaintenance 40409.773006439
scalar OsgEarthNet.uav[98] utilizationEnergyCharge 169618.12841797
scalar OsgEarthNet.uav[98] utilizationEnergyOverdrawMission 0
scalar OsgEarthNet.uav[98] utilizationEnergyOverdrawMaintenance 0
scalar OsgEarthNet.uav[98] utilizationCountMissions 37
scalar OsgEarthNet.uav[98] utilizationCountManeuversMission 445
scalar OsgEarthNet.uav[98] utilizationCountManeuversMaintenance 75
scalar OsgEarthNet.uav[98] utilizationCountChargeState 37
scalar OsgEarthNet.uav[98] utilizationCountOverdrawnAfterMission 0
scalar OsgEarthNet.uav[98] utilizationCountIdleState 33
scalar OsgEarthNet.uav[98] utilizationFail 0
scalar OsgEarthNet.uav[98] simulationTime 259200
scalar OsgEarthNet.uav[99] utilizationSecMission 2757.4100795458
scalar OsgEarthNet.uav[99] utilizationSecMaintenance 2338.968565196
scalar OsgEarthNet.uav[99] utilizationSecCharge 18900
scalar OsgEarthNet.uav[99] utilizationSecIdle 235203.62035526
scalar OsgEarthNet.uav[99] utilizationEnergyMission 12810.226768494
scalar OsgEarthNet.uav[99] utilizationEnergyMaintenance 10942.349666595
scalar OsgEarthNet.uav[99] utilizationEnergyCharge 23752.572753906
scalar OsgEarthNet.uav[99] utilizationEnergyOverdrawMission 0
scalar OsgEarthNet.uav[99] utilizationEnergyOverdrawMaintenance 0
scalar OsgEarthNet.uav[99] utilizationCountMissions 5
scalar OsgEarthNet.uav[99] utilizationCountManeuversMission 45
scalar OsgEarthNet.uav[99] utilizationCountManeuversMaintenance 10
scalar OsgEarthNet.uav[99] utilizationCountChargeState 5
scalar OsgEarthNet.uav[99] utilizationCountOverdrawnAfterMission 0
scalar OsgEarthNet.uav[99] utilizationCountIdleState 6
scalar OsgEarthNet.uav[99] utilizationFail 0
scalar OsgEarthNet.uav[99] simulationTime 259200
scalar OsgEarthNet.cs[0] usedPower 13996.994288157
scalar OsgEarthNet.cs[0] chargedPower 13996.994288157
scalar OsgEarthNet.cs[0] chargedMobileNodes 3
scalar OsgEarthNet.cs[0] reservations 3
scalar OsgEarthNet.cs[1] usedPower 988498.53691431
scalar OsgEarthNet.cs[1] chargedPower 988498.53691431
scalar OsgEarthNet.cs[1] chargedMobileNodes 208
scalar OsgEarthNet.cs[1] reservations 211
scalar OsgEarthNet.cs[2] usedPower 3119308.1425251
scalar OsgEarthNet.cs[2] chargedPower 3119308.1425251
scalar OsgEarthNet.cs[2] chargedMobileNodes 652
scalar OsgEarthNet.cs[2] reservations 661
scalar OsgEarthNet.cs[3] usedPower 0
scalar OsgEarthNet.cs[3] chargedPower 0
scalar OsgEarthNet.cs[3] chargedMobileNodes 0
scalar OsgEarthNet.cs[3] reservations 0
scalar OsgEarthNet.cs[4] usedPower 614460.50265278
scalar OsgEarthNet.cs[4] chargedPower 614460.50265278
scalar OsgEarthNet.cs[4] chargedMobileNodes 90
scalar OsgEarthNet.cs[4] reservations 133
scalar OsgEarthNet.cs[5] usedPower 245742.48395271
scalar OsgEarthNet.cs[5] chargedPower 245742.48395271
scalar OsgEarthNet.cs[5] chargedMobileNodes 45
scalar OsgEarthNet.cs[5] reservations 52
scalar OsgEarthNet.cs[6] usedPower 3126921.2832077
scalar OsgEarthNet.cs[6] chargedPower 3126921.2832077
scalar OsgEarthNet.cs[6] chargedMobileNodes 602
scalar OsgEarthNet.cs[6] reservations 681

