version 2
run Szenario_Hotel_Gabelbach-20-20180710-12:43:26-55824
attr configname Szenario_Hotel_Gabelbach
attr datetime 20180710-12:43:26
attr experiment Szenario_Hotel_Gabelbach
attr inifile omnetpp.ini
attr iterationvars "$numUAVs=50, $replM=0, $replSearchM=1"
attr iterationvarsf numUAVs=50,replM=0,replSearchM=1-
attr measurement "$numUAVs=50, $replM=0, $replSearchM=1"
attr network OsgEarthNet
attr processid 55824
attr repetition 4
attr replication #4
attr resultdir results
attr runnumber 20
attr seedset 20
itervar numUAVs 50
itervar replM 0
itervar replSearchM 1
param *.osgEarthScene.scene "\"Szenario_Hotel_Gabelbach.earth\""
param *.playgroundLatitude 50.6830269
param *.playgroundLongitude 10.8538055
param *.playgroundWidth 3500m
param *.playgroundHeight 3500m
param *.cs[0].posX 3537m
param *.cs[0].posY 965m
param *.cs[0].posZ 538m
param *.cs[1].posX 312m
param *.cs[1].posY 1262m
param *.cs[1].posZ 539m
param *.cs[2].posX 2185m
param *.cs[2].posY 3026m
param *.cs[2].posZ 777m
param *.cs[3].posX 10m
param *.cs[3].posY 2200m
param *.cs[3].posZ 560m
param *.cs[4].posX 750m
param *.cs[4].posY 200m
param *.cs[4].posZ 540m
param *.cs[5].posX 2450m
param *.cs[5].posY 180m
param *.cs[5].posZ 524m
param *.cs[6].posX 3140m
param *.cs[6].posY 1790m
param *.cs[6].posZ 606m
param *.numCSs 7
param *.numUAVs 50
param *.uav[*].replacementMethod 0
param *.missionControl.replacementSearchMethod 1
param *.*.timeStep 10s
param *.uav[*].commandPreviewCommandCount 20
param *.missionControl.missionFiles "\"missions\\\\Szenario_WB_Hotel_Gabelbach_Mission_Hotel.waypoints,missions\\\\Szenario_WB_Hotel_Gabelbach_Mission_Kickelhahn.waypoints,missions\\\\Szenario_WB_Hotel_Gabelbach_Mission_Ilmenau_Sportplatz.waypoints,missions\\\\Szenario_WB_Hotel_Gabelbach_Mission_Manebach_Mitte.waypoints,missions\\\\Szenario_WB_Hotel_Gabelbach_Mission_Manebach_Sued.waypoints\""
param *.missionControl.missionFiles "\"missions\\\\Szenario_WB_Hotel_Gabelbach_Mission_Hotel.waypoints,missions\\\\Szenario_WB_Hotel_Gabelbach_Mission_Kickelhahn.waypoints,missions\\\\Szenario_WB_Hotel_Gabelbach_Mission_Ilmenau_Sportplatz.waypoints,missions\\\\Szenario_WB_Hotel_Gabelbach_Mission_Manebach_Mitte.waypoints,missions\\\\Szenario_WB_Hotel_Gabelbach_Mission_Manebach_Sued.waypoints,missions\\\\Szenario_WB_Hotel_Gabelbach_Hover_HoheSchlaufe.waypoints,missions\\\\Szenario_WB_Hotel_Gabelbach_Hover_Kickelhahn.waypoints,missions\\\\Szenario_WB_Hotel_Gabelbach_Hover_Gabelbachskopf.waypoints,missions\\\\Szenario_WB_Hotel_Gabelbach_Hover_Dachskopf.waypoints\""
param *.uav[0].startX 3537m
param *.uav[0].startY 965m
param *.uav[0].startZ 539m
param *.uav[1].startX 312m
param *.uav[1].startY 1262m
param *.uav[1].startZ 540m
param *.uav[2].startX 2185m
param *.uav[2].startY 3026m
param *.uav[2].startZ 778m
param *.uav[3].startX 3537m
param *.uav[3].startY 965m
param *.uav[3].startZ 539m
param *.uav[4].startX 312m
param *.uav[4].startY 1262m
param *.uav[4].startZ 540m
param *.uav[5].startX 2185m
param *.uav[5].startY 3026m
param *.uav[5].startZ 778m
param *.uav[6].startX 3537m
param *.uav[6].startY 965m
param *.uav[6].startZ 539m
param *.uav[7].startX 312m
param *.uav[7].startY 1262m
param *.uav[7].startZ 540m
param *.uav[8].startX 2185m
param *.uav[8].startY 3026m
param *.uav[8].startZ 778m
param *.uav[9].startX 3537m
param *.uav[9].startY 965m
param *.uav[9].startZ 539m
param *.uav[10].startX 3537m
param *.uav[10].startY 965m
param *.uav[10].startZ 539m
param *.uav[11].startX 312m
param *.uav[11].startY 1262m
param *.uav[11].startZ 540m
param *.uav[12].startX 2185m
param *.uav[12].startY 3026m
param *.uav[12].startZ 778m
param *.uav[13].startX 3537m
param *.uav[13].startY 965m
param *.uav[13].startZ 539m
param *.uav[14].startX 312m
param *.uav[14].startY 1262m
param *.uav[14].startZ 540m
param *.uav[15].startX 2185m
param *.uav[15].startY 3026m
param *.uav[15].startZ 778m
param *.uav[16].startX 3537m
param *.uav[16].startY 965m
param *.uav[16].startZ 539m
param *.uav[17].startX 312m
param *.uav[17].startY 1262m
param *.uav[17].startZ 540m
param *.uav[18].startX 2185m
param *.uav[18].startY 3026m
param *.uav[18].startZ 778m
param *.uav[19].startX 3537m
param *.uav[19].startY 965m
param *.uav[19].startZ 539m
param *.uav[20].startX 3537m
param *.uav[20].startY 965m
param *.uav[20].startZ 539m
param *.uav[21].startX 312m
param *.uav[21].startY 1262m
param *.uav[21].startZ 540m
param *.uav[22].startX 2185m
param *.uav[22].startY 3026m
param *.uav[22].startZ 778m
param *.uav[23].startX 3537m
param *.uav[23].startY 965m
param *.uav[23].startZ 539m
param *.uav[24].startX 312m
param *.uav[24].startY 1262m
param *.uav[24].startZ 540m
param *.uav[25].startX 2185m
param *.uav[25].startY 3026m
param *.uav[25].startZ 778m
param *.uav[26].startX 3537m
param *.uav[26].startY 965m
param *.uav[26].startZ 539m
param *.uav[27].startX 312m
param *.uav[27].startY 1262m
param *.uav[27].startZ 540m
param *.uav[28].startX 2185m
param *.uav[28].startY 3026m
param *.uav[28].startZ 778m
param *.uav[29].startX 3537m
param *.uav[29].startY 965m
param *.uav[29].startZ 539m
param *.uav[30].startX 3537m
param *.uav[30].startY 965m
param *.uav[30].startZ 539m
param *.uav[31].startX 312m
param *.uav[31].startY 1262m
param *.uav[31].startZ 540m
param *.uav[32].startX 2185m
param *.uav[32].startY 3026m
param *.uav[32].startZ 778m
param *.uav[33].startX 3537m
param *.uav[33].startY 965m
param *.uav[33].startZ 539m
param *.uav[34].startX 312m
param *.uav[34].startY 1262m
param *.uav[34].startZ 540m
param *.uav[35].startX 2185m
param *.uav[35].startY 3026m
param *.uav[35].startZ 778m
param *.uav[36].startX 3537m
param *.uav[36].startY 965m
param *.uav[36].startZ 539m
param *.uav[37].startX 312m
param *.uav[37].startY 1262m
param *.uav[37].startZ 540m
param *.uav[38].startX 2185m
param *.uav[38].startY 3026m
param *.uav[38].startZ 778m
param *.uav[39].startX 3537m
param *.uav[39].startY 965m
param *.uav[39].startZ 539m
param *.uav[40].startX 3537m
param *.uav[40].startY 965m
param *.uav[40].startZ 539m
param *.uav[41].startX 312m
param *.uav[41].startY 1262m
param *.uav[41].startZ 540m
param *.uav[42].startX 2185m
param *.uav[42].startY 3026m
param *.uav[42].startZ 778m
param *.uav[43].startX 3537m
param *.uav[43].startY 965m
param *.uav[43].startZ 539m
param *.uav[44].startX 312m
param *.uav[44].startY 1262m
param *.uav[44].startZ 540m
param *.uav[45].startX 2185m
param *.uav[45].startY 3026m
param *.uav[45].startZ 778m
param *.uav[46].startX 3537m
param *.uav[46].startY 965m
param *.uav[46].startZ 539m
param *.uav[47].startX 312m
param *.uav[47].startY 1262m
param *.uav[47].startZ 540m
param *.uav[48].startX 2185m
param *.uav[48].startY 3026m
param *.uav[48].startZ 778m
param *.uav[49].startX 3537m
param *.uav[49].startY 965m
param *.uav[49].startZ 539m
param *.uav[50].startX 3537m
param *.uav[50].startY 965m
param *.uav[50].startZ 539m
param *.uav[51].startX 312m
param *.uav[51].startY 1262m
param *.uav[51].startZ 540m
param *.uav[52].startX 2185m
param *.uav[52].startY 3026m
param *.uav[52].startZ 778m
param *.uav[53].startX 3537m
param *.uav[53].startY 965m
param *.uav[53].startZ 539m
param *.uav[54].startX 312m
param *.uav[54].startY 1262m
param *.uav[54].startZ 540m
param *.uav[55].startX 2185m
param *.uav[55].startY 3026m
param *.uav[55].startZ 778m
param *.uav[56].startX 3537m
param *.uav[56].startY 965m
param *.uav[56].startZ 539m
param *.uav[57].startX 312m
param *.uav[57].startY 1262m
param *.uav[57].startZ 540m
param *.uav[58].startX 2185m
param *.uav[58].startY 3026m
param *.uav[58].startZ 778m
param *.uav[59].startX 3537m
param *.uav[59].startY 965m
param *.uav[59].startZ 539m
param *.uav[60].startX 3537m
param *.uav[60].startY 965m
param *.uav[60].startZ 539m
param *.uav[61].startX 312m
param *.uav[61].startY 1262m
param *.uav[61].startZ 540m
param *.uav[62].startX 2185m
param *.uav[62].startY 3026m
param *.uav[62].startZ 778m
param *.uav[63].startX 3537m
param *.uav[63].startY 965m
param *.uav[63].startZ 539m
param *.uav[64].startX 312m
param *.uav[64].startY 1262m
param *.uav[64].startZ 540m
param *.uav[65].startX 2185m
param *.uav[65].startY 3026m
param *.uav[65].startZ 778m
param *.uav[66].startX 3537m
param *.uav[66].startY 965m
param *.uav[66].startZ 539m
param *.uav[67].startX 312m
param *.uav[67].startY 1262m
param *.uav[67].startZ 540m
param *.uav[68].startX 2185m
param *.uav[68].startY 3026m
param *.uav[68].startZ 778m
param *.uav[69].startX 3537m
param *.uav[69].startY 965m
param *.uav[69].startZ 539m
param *.uav[70].startX 3537m
param *.uav[70].startY 965m
param *.uav[70].startZ 539m
param *.uav[71].startX 312m
param *.uav[71].startY 1262m
param *.uav[71].startZ 540m
param *.uav[72].startX 2185m
param *.uav[72].startY 3026m
param *.uav[72].startZ 778m
param *.uav[73].startX 3537m
param *.uav[73].startY 965m
param *.uav[73].startZ 539m
param *.uav[74].startX 312m
param *.uav[74].startY 1262m
param *.uav[74].startZ 540m
param *.uav[75].startX 2185m
param *.uav[75].startY 3026m
param *.uav[75].startZ 778m
param *.uav[76].startX 3537m
param *.uav[76].startY 965m
param *.uav[76].startZ 539m
param *.uav[77].startX 312m
param *.uav[77].startY 1262m
param *.uav[77].startZ 540m
param *.uav[78].startX 2185m
param *.uav[78].startY 3026m
param *.uav[78].startZ 778m
param *.uav[79].startX 3537m
param *.uav[79].startY 965m
param *.uav[79].startZ 539m
param *.uav[80].startX 3537m
param *.uav[80].startY 965m
param *.uav[80].startZ 539m
param *.uav[81].startX 312m
param *.uav[81].startY 1262m
param *.uav[81].startZ 540m
param *.uav[82].startX 2185m
param *.uav[82].startY 3026m
param *.uav[82].startZ 778m
param *.uav[83].startX 3537m
param *.uav[83].startY 965m
param *.uav[83].startZ 539m
param *.uav[84].startX 312m
param *.uav[84].startY 1262m
param *.uav[84].startZ 540m
param *.uav[85].startX 2185m
param *.uav[85].startY 3026m
param *.uav[85].startZ 778m
param *.uav[86].startX 3537m
param *.uav[86].startY 965m
param *.uav[86].startZ 539m
param *.uav[87].startX 312m
param *.uav[87].startY 1262m
param *.uav[87].startZ 540m
param *.uav[88].startX 2185m
param *.uav[88].startY 3026m
param *.uav[88].startZ 778m
param *.uav[89].startX 3537m
param *.uav[89].startY 965m
param *.uav[89].startZ 539m
param *.uav[90].startX 3537m
param *.uav[90].startY 965m
param *.uav[90].startZ 539m
param *.uav[91].startX 312m
param *.uav[91].startY 1262m
param *.uav[91].startZ 540m
param *.uav[92].startX 2185m
param *.uav[92].startY 3026m
param *.uav[92].startZ 778m
param *.uav[93].startX 3537m
param *.uav[93].startY 965m
param *.uav[93].startZ 539m
param *.uav[94].startX 312m
param *.uav[94].startY 1262m
param *.uav[94].startZ 540m
param *.uav[95].startX 2185m
param *.uav[95].startY 3026m
param *.uav[95].startZ 778m
param *.uav[96].startX 3537m
param *.uav[96].startY 965m
param *.uav[96].startZ 539m
param *.uav[97].startX 312m
param *.uav[97].startY 1262m
param *.uav[97].startZ 540m
param *.uav[98].startX 2185m
param *.uav[98].startY 3026m
param *.uav[98].startZ 778m
param *.uav[99].startX 3537m
param *.uav[99].startY 965m
param *.uav[99].startZ 539m
param *.osgEarthScene.scene "\"boston.earth\""
param *.playgroundLatitude 42.3558
param *.playgroundLongitude -71.0677
param *.playgroundWidth 400m
param *.playgroundHeight 200m
param *.channelController.connectionColor "\"#0000FF40\""
param *.channelController.showConnections false
param *.uav[*].modelURL "\"quadrocopter.small.obj.15.scale.0,0,90.rot\""
param *.uav[*].labelColor "\"#FF7C00CC\""
param *.uav[*].label2Color "\"#FF7C00EE\""
param *.uav[*].batteryCapacity 5200mAh
param *.uav[*].batteryRemaining uav[index].batteryCapacity
param *.uav[*].predictionQuantile 0.95
param *.uav[*].replacementMethod 2
param *.uav[*].weightedSumWeight 0.5
param *.cs[*].modelURL "\"chargingstation_v1.osgt.2.scale.0,0,0.rot.0,0,-15e-1.trans\""
param *.cs[*].spotsWaiting 999
param *.cs[*].spotsCharging 999
param *.cs[*].chargeEffectivenessPercentage 100
param *.cs[*].nonLinearPhaseStartPercentage 85
param *.cs[*].chargeCurrent 6.0A
param *.cs[*].prioritizeFastCharge true
param *.missionControl.replacementSearchMethod 0
param *.*.timeStep 9s

scalar OsgEarthNet.uav[0] utilizationSecMission 19330.639766208
scalar OsgEarthNet.uav[0] utilizationSecMaintenance 6670.8402786245
scalar OsgEarthNet.uav[0] utilizationSecCharge 92970
scalar OsgEarthNet.uav[0] utilizationSecIdle 140228.51895517
scalar OsgEarthNet.uav[0] utilizationEnergyMission 89300.084579468
scalar OsgEarthNet.uav[0] utilizationEnergyMaintenance 32103.009647369
scalar OsgEarthNet.uav[0] utilizationEnergyCharge 121403.09765625
scalar OsgEarthNet.uav[0] utilizationEnergyOverdrawMission 0
scalar OsgEarthNet.uav[0] utilizationEnergyOverdrawMaintenance 0
scalar OsgEarthNet.uav[0] utilizationCountMissions 26
scalar OsgEarthNet.uav[0] utilizationCountManeuversMission 293
scalar OsgEarthNet.uav[0] utilizationCountManeuversMaintenance 52
scalar OsgEarthNet.uav[0] utilizationCountChargeState 26
scalar OsgEarthNet.uav[0] utilizationCountOverdrawnAfterMission 0
scalar OsgEarthNet.uav[0] utilizationCountIdleState 14
scalar OsgEarthNet.uav[0] utilizationFail 0
scalar OsgEarthNet.uav[0] simulationTime 259200
scalar OsgEarthNet.uav[1] utilizationSecMission 12993.444124885
scalar OsgEarthNet.uav[1] utilizationSecMaintenance 6822.1494415143
scalar OsgEarthNet.uav[1] utilizationSecCharge 73680
scalar OsgEarthNet.uav[1] utilizationSecIdle 165704.4054336
scalar OsgEarthNet.uav[1] utilizationEnergyMission 60730.3229599
scalar OsgEarthNet.uav[1] utilizationEnergyMaintenance 32185.03597641
scalar OsgEarthNet.uav[1] utilizationEnergyCharge 92915.382324219
scalar OsgEarthNet.uav[1] utilizationEnergyOverdrawMission 0
scalar OsgEarthNet.uav[1] utilizationEnergyOverdrawMaintenance 0
scalar OsgEarthNet.uav[1] utilizationCountMissions 20
scalar OsgEarthNet.uav[1] utilizationCountManeuversMission 224
scalar OsgEarthNet.uav[1] utilizationCountManeuversMaintenance 40
scalar OsgEarthNet.uav[1] utilizationCountChargeState 20
scalar OsgEarthNet.uav[1] utilizationCountOverdrawnAfterMission 0
scalar OsgEarthNet.uav[1] utilizationCountIdleState 14
scalar OsgEarthNet.uav[1] utilizationFail 0
scalar OsgEarthNet.uav[1] simulationTime 259200
scalar OsgEarthNet.uav[2] utilizationSecMission 26044.2434751
scalar OsgEarthNet.uav[2] utilizationSecMaintenance 8732.5426802742
scalar OsgEarthNet.uav[2] utilizationSecCharge 125080
scalar OsgEarthNet.uav[2] utilizationSecIdle 99343.212844626
scalar OsgEarthNet.uav[2] utilizationEnergyMission 119910.30508423
scalar OsgEarthNet.uav[2] utilizationEnergyMaintenance 41931.538272858
scalar OsgEarthNet.uav[2] utilizationEnergyCharge 161841.83154297
scalar OsgEarthNet.uav[2] utilizationEnergyOverdrawMission 0
scalar OsgEarthNet.uav[2] utilizationEnergyOverdrawMaintenance 0
scalar OsgEarthNet.uav[2] utilizationCountMissions 35
scalar OsgEarthNet.uav[2] utilizationCountManeuversMission 395
scalar OsgEarthNet.uav[2] utilizationCountManeuversMaintenance 70
scalar OsgEarthNet.uav[2] utilizationCountChargeState 35
scalar OsgEarthNet.uav[2] utilizationCountOverdrawnAfterMission 0
scalar OsgEarthNet.uav[2] utilizationCountIdleState 19
scalar OsgEarthNet.uav[2] utilizationFail 0
scalar OsgEarthNet.uav[2] simulationTime 259200
scalar OsgEarthNet.uav[3] utilizationSecMission 6037.9530363542
scalar OsgEarthNet.uav[3] utilizationSecMaintenance 2846.8181623392
scalar OsgEarthNet.uav[3] utilizationSecCharge 30346.518405628
scalar OsgEarthNet.uav[3] utilizationSecIdle 219968.70939568
scalar OsgEarthNet.uav[3] utilizationEnergyMission 27737.663566589
scalar OsgEarthNet.uav[3] utilizationEnergyMaintenance 13548.074230194
scalar OsgEarthNet.uav[3] utilizationEnergyCharge 38066.098144531
scalar OsgEarthNet.uav[3] utilizationEnergyOverdrawMission 0
scalar OsgEarthNet.uav[3] utilizationEnergyOverdrawMaintenance 0
scalar OsgEarthNet.uav[3] utilizationCountMissions 9
scalar OsgEarthNet.uav[3] utilizationCountManeuversMission 95
scalar OsgEarthNet.uav[3] utilizationCountManeuversMaintenance 18
scalar OsgEarthNet.uav[3] utilizationCountChargeState 9
scalar OsgEarthNet.uav[3] utilizationCountOverdrawnAfterMission 0
scalar OsgEarthNet.uav[3] utilizationCountIdleState 9
scalar OsgEarthNet.uav[3] utilizationFail 0
scalar OsgEarthNet.uav[3] simulationTime 259200
scalar OsgEarthNet.uav[4] utilizationSecMission 8881.1977139946
scalar OsgEarthNet.uav[4] utilizationSecMaintenance 5095.122148213
scalar OsgEarthNet.uav[4] utilizationSecCharge 51370
scalar OsgEarthNet.uav[4] utilizationSecIdle 193853.67913779
scalar OsgEarthNet.uav[4] utilizationEnergyMission 40831.493522644
scalar OsgEarthNet.uav[4] utilizationEnergyMaintenance 24178.009174347
scalar OsgEarthNet.uav[4] utilizationEnergyCharge 65009.503417969
scalar OsgEarthNet.uav[4] utilizationEnergyOverdrawMission 0
scalar OsgEarthNet.uav[4] utilizationEnergyOverdrawMaintenance 0
scalar OsgEarthNet.uav[4] utilizationCountMissions 14
scalar OsgEarthNet.uav[4] utilizationCountManeuversMission 145
scalar OsgEarthNet.uav[4] utilizationCountManeuversMaintenance 28
scalar OsgEarthNet.uav[4] utilizationCountChargeState 14
scalar OsgEarthNet.uav[4] utilizationCountOverdrawnAfterMission 0
scalar OsgEarthNet.uav[4] utilizationCountIdleState 13
scalar OsgEarthNet.uav[4] utilizationFail 0
scalar OsgEarthNet.uav[4] simulationTime 259200
scalar OsgEarthNet.uav[5] utilizationSecMission 27014.87845968
scalar OsgEarthNet.uav[5] utilizationSecMaintenance 10498.611463335
scalar OsgEarthNet.uav[5] utilizationSecCharge 136760.47297822
scalar OsgEarthNet.uav[5] utilizationSecIdle 84926.036098769
scalar OsgEarthNet.uav[5] utilizationEnergyMission 125999.48584747
scalar OsgEarthNet.uav[5] utilizationEnergyMaintenance 49261.798316956
scalar OsgEarthNet.uav[5] utilizationEnergyCharge 174325.38574219
scalar OsgEarthNet.uav[5] utilizationEnergyOverdrawMission 0
scalar OsgEarthNet.uav[5] utilizationEnergyOverdrawMaintenance 0
scalar OsgEarthNet.uav[5] utilizationCountMissions 38
scalar OsgEarthNet.uav[5] utilizationCountManeuversMission 436
scalar OsgEarthNet.uav[5] utilizationCountManeuversMaintenance 76
scalar OsgEarthNet.uav[5] utilizationCountChargeState 38
scalar OsgEarthNet.uav[5] utilizationCountOverdrawnAfterMission 0
scalar OsgEarthNet.uav[5] utilizationCountIdleState 25
scalar OsgEarthNet.uav[5] utilizationFail 0
scalar OsgEarthNet.uav[5] simulationTime 259200
scalar OsgEarthNet.uav[6] utilizationSecMission 32609.025756687
scalar OsgEarthNet.uav[6] utilizationSecMaintenance 10838.833430169
scalar OsgEarthNet.uav[6] utilizationSecCharge 154140
scalar OsgEarthNet.uav[6] utilizationSecIdle 61612.139813144
scalar OsgEarthNet.uav[6] utilizationEnergyMission 151244.90367126
scalar OsgEarthNet.uav[6] utilizationEnergyMaintenance 52110.835759528
scalar OsgEarthNet.uav[6] utilizationEnergyCharge 198579.82617188
scalar OsgEarthNet.uav[6] utilizationEnergyOverdrawMission 0
scalar OsgEarthNet.uav[6] utilizationEnergyOverdrawMaintenance 0
scalar OsgEarthNet.uav[6] utilizationCountMissions 44
scalar OsgEarthNet.uav[6] utilizationCountManeuversMission 498
scalar OsgEarthNet.uav[6] utilizationCountManeuversMaintenance 88
scalar OsgEarthNet.uav[6] utilizationCountChargeState 43
scalar OsgEarthNet.uav[6] utilizationCountOverdrawnAfterMission 0
scalar OsgEarthNet.uav[6] utilizationCountIdleState 27
scalar OsgEarthNet.uav[6] utilizationFail 0
scalar OsgEarthNet.uav[6] simulationTime 259200
scalar OsgEarthNet.uav[7] utilizationSecMission 14288.179221688
scalar OsgEarthNet.uav[7] utilizationSecMaintenance 7903.9903454033
scalar OsgEarthNet.uav[7] utilizationSecCharge 80909.829235293
scalar OsgEarthNet.uav[7] utilizationSecIdle 156098.00019762
scalar OsgEarthNet.uav[7] utilizationEnergyMission 67469.819190979
scalar OsgEarthNet.uav[7] utilizationEnergyMaintenance 37793.574634552
scalar OsgEarthNet.uav[7] utilizationEnergyCharge 102898.52783203
scalar OsgEarthNet.uav[7] utilizationEnergyOverdrawMission 0
scalar OsgEarthNet.uav[7] utilizationEnergyOverdrawMaintenance 0
scalar OsgEarthNet.uav[7] utilizationCountMissions 22
scalar OsgEarthNet.uav[7] utilizationCountManeuversMission 236
scalar OsgEarthNet.uav[7] utilizationCountManeuversMaintenance 44
scalar OsgEarthNet.uav[7] utilizationCountChargeState 22
scalar OsgEarthNet.uav[7] utilizationCountOverdrawnAfterMission 0
scalar OsgEarthNet.uav[7] utilizationCountIdleState 21
scalar OsgEarthNet.uav[7] utilizationFail 0
scalar OsgEarthNet.uav[7] simulationTime 259200
scalar OsgEarthNet.uav[8] utilizationSecMission 27785.880903957
scalar OsgEarthNet.uav[8] utilizationSecMaintenance 9958.8627419416
scalar OsgEarthNet.uav[8] utilizationSecCharge 137910
scalar OsgEarthNet.uav[8] utilizationSecIdle 83545.255354101
scalar OsgEarthNet.uav[8] utilizationEnergyMission 127697.66506958
scalar OsgEarthNet.uav[8] utilizationEnergyMaintenance 47874.276557922
scalar OsgEarthNet.uav[8] utilizationEnergyCharge 175186.32568359
scalar OsgEarthNet.uav[8] utilizationEnergyOverdrawMission 0
scalar OsgEarthNet.uav[8] utilizationEnergyOverdrawMaintenance 0
scalar OsgEarthNet.uav[8] utilizationCountMissions 38
scalar OsgEarthNet.uav[8] utilizationCountManeuversMission 436
scalar OsgEarthNet.uav[8] utilizationCountManeuversMaintenance 76
scalar OsgEarthNet.uav[8] utilizationCountChargeState 38
scalar OsgEarthNet.uav[8] utilizationCountOverdrawnAfterMission 0
scalar OsgEarthNet.uav[8] utilizationCountIdleState 28
scalar OsgEarthNet.uav[8] utilizationFail 0
scalar OsgEarthNet.uav[8] simulationTime 259200
scalar OsgEarthNet.uav[9] utilizationSecMission 21798.619971001
scalar OsgEarthNet.uav[9] utilizationSecMaintenance 8384.2436910559
scalar OsgEarthNet.uav[9] utilizationSecCharge 107370.30440176
scalar OsgEarthNet.uav[9] utilizationSecIdle 121646.83093618
scalar OsgEarthNet.uav[9] utilizationEnergyMission 100172.53432083
scalar OsgEarthNet.uav[9] utilizationEnergyMaintenance 39779.700202942
scalar OsgEarthNet.uav[9] utilizationEnergyCharge 136197.5645752
scalar OsgEarthNet.uav[9] utilizationEnergyOverdrawMission 0
scalar OsgEarthNet.uav[9] utilizationEnergyOverdrawMaintenance 0
scalar OsgEarthNet.uav[9] utilizationCountMissions 30
scalar OsgEarthNet.uav[9] utilizationCountManeuversMission 336
scalar OsgEarthNet.uav[9] utilizationCountManeuversMaintenance 60
scalar OsgEarthNet.uav[9] utilizationCountChargeState 30
scalar OsgEarthNet.uav[9] utilizationCountOverdrawnAfterMission 0
scalar OsgEarthNet.uav[9] utilizationCountIdleState 22
scalar OsgEarthNet.uav[9] utilizationFail 0
scalar OsgEarthNet.uav[9] simulationTime 259200
scalar OsgEarthNet.uav[10] utilizationSecMission 13351.485062664
scalar OsgEarthNet.uav[10] utilizationSecMaintenance 5615.9964018417
scalar OsgEarthNet.uav[10] utilizationSecCharge 69818.842196694
scalar OsgEarthNet.uav[10] utilizationSecIdle 170413.6753388
scalar OsgEarthNet.uav[10] utilizationEnergyMission 61242.952819824
scalar OsgEarthNet.uav[10] utilizationEnergyMaintenance 27275.591964722
scalar OsgEarthNet.uav[10] utilizationEnergyCharge 88259.436523438
scalar OsgEarthNet.uav[10] utilizationEnergyOverdrawMission 0
scalar OsgEarthNet.uav[10] utilizationEnergyOverdrawMaintenance 0
scalar OsgEarthNet.uav[10] utilizationCountMissions 19
scalar OsgEarthNet.uav[10] utilizationCountManeuversMission 206
scalar OsgEarthNet.uav[10] utilizationCountManeuversMaintenance 38
scalar OsgEarthNet.uav[10] utilizationCountChargeState 19
scalar OsgEarthNet.uav[10] utilizationCountOverdrawnAfterMission 0
scalar OsgEarthNet.uav[10] utilizationCountIdleState 19
scalar OsgEarthNet.uav[10] utilizationFail 0
scalar OsgEarthNet.uav[10] simulationTime 259200
scalar OsgEarthNet.uav[11] utilizationSecMission 36850.758150245
scalar OsgEarthNet.uav[11] utilizationSecMaintenance 16390.495071968
scalar OsgEarthNet.uav[11] utilizationSecCharge 192972.74053467
scalar OsgEarthNet.uav[11] utilizationSecIdle 12986.005243114
scalar OsgEarthNet.uav[11] utilizationEnergyMission 171469.53397369
scalar OsgEarthNet.uav[11] utilizationEnergyMaintenance 76928.331245422
scalar OsgEarthNet.uav[11] utilizationEnergyCharge 244424.55474854
scalar OsgEarthNet.uav[11] utilizationEnergyOverdrawMission 0
scalar OsgEarthNet.uav[11] utilizationEnergyOverdrawMaintenance 0
scalar OsgEarthNet.uav[11] utilizationCountMissions 53
scalar OsgEarthNet.uav[11] utilizationCountManeuversMission 689
scalar OsgEarthNet.uav[11] utilizationCountManeuversMaintenance 106
scalar OsgEarthNet.uav[11] utilizationCountChargeState 53
scalar OsgEarthNet.uav[11] utilizationCountOverdrawnAfterMission 0
scalar OsgEarthNet.uav[11] utilizationCountIdleState 29
scalar OsgEarthNet.uav[11] utilizationFail 0
scalar OsgEarthNet.uav[11] simulationTime 259200
scalar OsgEarthNet.uav[12] utilizationSecMission 40178.045365868
scalar OsgEarthNet.uav[12] utilizationSecMaintenance 7414.5301293614
scalar OsgEarthNet.uav[12] utilizationSecCharge 155461.96784815
scalar OsgEarthNet.uav[12] utilizationSecIdle 56145.45565662
scalar OsgEarthNet.uav[12] utilizationEnergyMission 185611.42633057
scalar OsgEarthNet.uav[12] utilizationEnergyMaintenance 33302.186149597
scalar OsgEarthNet.uav[12] utilizationEnergyCharge 211414.54882812
scalar OsgEarthNet.uav[12] utilizationEnergyOverdrawMission 0
scalar OsgEarthNet.uav[12] utilizationEnergyOverdrawMaintenance 0
scalar OsgEarthNet.uav[12] utilizationCountMissions 45
scalar OsgEarthNet.uav[12] utilizationCountManeuversMission 638
scalar OsgEarthNet.uav[12] utilizationCountManeuversMaintenance 90
scalar OsgEarthNet.uav[12] utilizationCountChargeState 45
scalar OsgEarthNet.uav[12] utilizationCountOverdrawnAfterMission 0
scalar OsgEarthNet.uav[12] utilizationCountIdleState 14
scalar OsgEarthNet.uav[12] utilizationFail 0
scalar OsgEarthNet.uav[12] simulationTime 259200
scalar OsgEarthNet.uav[13] utilizationSecMission 16590.182006318
scalar OsgEarthNet.uav[13] utilizationSecMaintenance 6246.1573956848
scalar OsgEarthNet.uav[13] utilizationSecCharge 85110
scalar OsgEarthNet.uav[13] utilizationSecIdle 151253.659598
scalar OsgEarthNet.uav[13] utilizationEnergyMission 76735.449279785
scalar OsgEarthNet.uav[13] utilizationEnergyMaintenance 29950.046863556
scalar OsgEarthNet.uav[13] utilizationEnergyCharge 106435.40332031
scalar OsgEarthNet.uav[13] utilizationEnergyOverdrawMission 0
scalar OsgEarthNet.uav[13] utilizationEnergyOverdrawMaintenance 0
scalar OsgEarthNet.uav[13] utilizationCountMissions 23
scalar OsgEarthNet.uav[13] utilizationCountManeuversMission 255
scalar OsgEarthNet.uav[13] utilizationCountManeuversMaintenance 46
scalar OsgEarthNet.uav[13] utilizationCountChargeState 23
scalar OsgEarthNet.uav[13] utilizationCountOverdrawnAfterMission 0
scalar OsgEarthNet.uav[13] utilizationCountIdleState 22
scalar OsgEarthNet.uav[13] utilizationFail 0
scalar OsgEarthNet.uav[13] simulationTime 259200
scalar OsgEarthNet.uav[14] utilizationSecMission 12976.282975553
scalar OsgEarthNet.uav[14] utilizationSecMaintenance 7076.6406802908
scalar OsgEarthNet.uav[14] utilizationSecCharge 74560
scalar OsgEarthNet.uav[14] utilizationSecIdle 164587.07534416
scalar OsgEarthNet.uav[14] utilizationEnergyMission 59937.009979248
scalar OsgEarthNet.uav[14] utilizationEnergyMaintenance 34180.439479828
scalar OsgEarthNet.uav[14] utilizationEnergyCharge 94117.444335938
scalar OsgEarthNet.uav[14] utilizationEnergyOverdrawMission 0
scalar OsgEarthNet.uav[14] utilizationEnergyOverdrawMaintenance 0
scalar OsgEarthNet.uav[14] utilizationCountMissions 20
scalar OsgEarthNet.uav[14] utilizationCountManeuversMission 209
scalar OsgEarthNet.uav[14] utilizationCountManeuversMaintenance 40
scalar OsgEarthNet.uav[14] utilizationCountChargeState 20
scalar OsgEarthNet.uav[14] utilizationCountOverdrawnAfterMission 0
scalar OsgEarthNet.uav[14] utilizationCountIdleState 19
scalar OsgEarthNet.uav[14] utilizationFail 0
scalar OsgEarthNet.uav[14] simulationTime 259200
scalar OsgEarthNet.uav[15] utilizationSecMission 37208.202736233
scalar OsgEarthNet.uav[15] utilizationSecMaintenance 10194.083099234
scalar OsgEarthNet.uav[15] utilizationSecCharge 170156.2602026
scalar OsgEarthNet.uav[15] utilizationSecIdle 41641.452961934
scalar OsgEarthNet.uav[15] utilizationEnergyMission 172036.0161438
scalar OsgEarthNet.uav[15] utilizationEnergyMaintenance 48449.351837158
scalar OsgEarthNet.uav[15] utilizationEnergyCharge 219472.31298828
scalar OsgEarthNet.uav[15] utilizationEnergyOverdrawMission 0
scalar OsgEarthNet.uav[15] utilizationEnergyOverdrawMaintenance 0
scalar OsgEarthNet.uav[15] utilizationCountMissions 47
scalar OsgEarthNet.uav[15] utilizationCountManeuversMission 573
scalar OsgEarthNet.uav[15] utilizationCountManeuversMaintenance 94
scalar OsgEarthNet.uav[15] utilizationCountChargeState 47
scalar OsgEarthNet.uav[15] utilizationCountOverdrawnAfterMission 0
scalar OsgEarthNet.uav[15] utilizationCountIdleState 29
scalar OsgEarthNet.uav[15] utilizationFail 0
scalar OsgEarthNet.uav[15] simulationTime 259200
scalar OsgEarthNet.uav[16] utilizationSecMission 20722.69609715
scalar OsgEarthNet.uav[16] utilizationSecMaintenance 9585.7655441209
scalar OsgEarthNet.uav[16] utilizationSecCharge 110419.11431808
scalar OsgEarthNet.uav[16] utilizationSecIdle 118472.42304065
scalar OsgEarthNet.uav[16] utilizationEnergyMission 96022.415275574
scalar OsgEarthNet.uav[16] utilizationEnergyMaintenance 46527.473834991
scalar OsgEarthNet.uav[16] utilizationEnergyCharge 140413.11230469
scalar OsgEarthNet.uav[16] utilizationEnergyOverdrawMission 0
scalar OsgEarthNet.uav[16] utilizationEnergyOverdrawMaintenance 0
scalar OsgEarthNet.uav[16] utilizationCountMissions 30
scalar OsgEarthNet.uav[16] utilizationCountManeuversMission 340
scalar OsgEarthNet.uav[16] utilizationCountManeuversMaintenance 60
scalar OsgEarthNet.uav[16] utilizationCountChargeState 30
scalar OsgEarthNet.uav[16] utilizationCountOverdrawnAfterMission 0
scalar OsgEarthNet.uav[16] utilizationCountIdleState 24
scalar OsgEarthNet.uav[16] utilizationFail 0
scalar OsgEarthNet.uav[16] simulationTime 259200
scalar OsgEarthNet.uav[17] utilizationSecMission 32162.733701872
scalar OsgEarthNet.uav[17] utilizationSecMaintenance 12904.181945486
scalar OsgEarthNet.uav[17] utilizationSecCharge 164850
scalar OsgEarthNet.uav[17] utilizationSecIdle 49283.083352642
scalar OsgEarthNet.uav[17] utilizationEnergyMission 149016.77729294
scalar OsgEarthNet.uav[17] utilizationEnergyMaintenance 61369.927680969
scalar OsgEarthNet.uav[17] utilizationEnergyCharge 209490.44677734
scalar OsgEarthNet.uav[17] utilizationEnergyOverdrawMission 0
scalar OsgEarthNet.uav[17] utilizationEnergyOverdrawMaintenance 0
scalar OsgEarthNet.uav[17] utilizationCountMissions 45
scalar OsgEarthNet.uav[17] utilizationCountManeuversMission 532
scalar OsgEarthNet.uav[17] utilizationCountManeuversMaintenance 91
scalar OsgEarthNet.uav[17] utilizationCountChargeState 45
scalar OsgEarthNet.uav[17] utilizationCountOverdrawnAfterMission 0
scalar OsgEarthNet.uav[17] utilizationCountIdleState 28
scalar OsgEarthNet.uav[17] utilizationFail 0
scalar OsgEarthNet.uav[17] simulationTime 259200
scalar OsgEarthNet.uav[18] utilizationSecMission 18573.547777753
scalar OsgEarthNet.uav[18] utilizationSecMaintenance 6063.3903219535
scalar OsgEarthNet.uav[18] utilizationSecCharge 89880
scalar OsgEarthNet.uav[18] utilizationSecIdle 144683.06090029
scalar OsgEarthNet.uav[18] utilizationEnergyMission 83696.252731323
scalar OsgEarthNet.uav[18] utilizationEnergyMaintenance 28040.901794434
scalar OsgEarthNet.uav[18] utilizationEnergyCharge 113267.55273438
scalar OsgEarthNet.uav[18] utilizationEnergyOverdrawMission 0
scalar OsgEarthNet.uav[18] utilizationEnergyOverdrawMaintenance 0
scalar OsgEarthNet.uav[18] utilizationCountMissions 24
scalar OsgEarthNet.uav[18] utilizationCountManeuversMission 296
scalar OsgEarthNet.uav[18] utilizationCountManeuversMaintenance 48
scalar OsgEarthNet.uav[18] utilizationCountChargeState 24
scalar OsgEarthNet.uav[18] utilizationCountOverdrawnAfterMission 0
scalar OsgEarthNet.uav[18] utilizationCountIdleState 24
scalar OsgEarthNet.uav[18] utilizationFail 0
scalar OsgEarthNet.uav[18] simulationTime 259200
scalar OsgEarthNet.uav[19] utilizationSecMission 27599.03245812
scalar OsgEarthNet.uav[19] utilizationSecMaintenance 9968.9665418804
scalar OsgEarthNet.uav[19] utilizationSecCharge 134770
scalar OsgEarthNet.uav[19] utilizationSecIdle 86862
scalar OsgEarthNet.uav[19] utilizationEnergyMission 128721.44758078
scalar OsgEarthNet.uav[19] utilizationEnergyMaintenance 47537.563533783
scalar OsgEarthNet.uav[19] utilizationEnergyCharge 172354.18359375
scalar OsgEarthNet.uav[19] utilizationEnergyOverdrawMission 0
scalar OsgEarthNet.uav[19] utilizationEnergyOverdrawMaintenance 0
scalar OsgEarthNet.uav[19] utilizationCountMissions 37
scalar OsgEarthNet.uav[19] utilizationCountManeuversMission 425
scalar OsgEarthNet.uav[19] utilizationCountManeuversMaintenance 74
scalar OsgEarthNet.uav[19] utilizationCountChargeState 37
scalar OsgEarthNet.uav[19] utilizationCountOverdrawnAfterMission 0
scalar OsgEarthNet.uav[19] utilizationCountIdleState 22
scalar OsgEarthNet.uav[19] utilizationFail 0
scalar OsgEarthNet.uav[19] simulationTime 259200
scalar OsgEarthNet.uav[20] utilizationSecMission 12894.540472042
scalar OsgEarthNet.uav[20] utilizationSecMaintenance 6341.815344849
scalar OsgEarthNet.uav[20] utilizationSecCharge 70440
scalar OsgEarthNet.uav[20] utilizationSecIdle 169523.64318311
scalar OsgEarthNet.uav[20] utilizationEnergyMission 59025.327018738
scalar OsgEarthNet.uav[20] utilizationEnergyMaintenance 29382.938796997
scalar OsgEarthNet.uav[20] utilizationEnergyCharge 88388.692382812
scalar OsgEarthNet.uav[20] utilizationEnergyOverdrawMission 0
scalar OsgEarthNet.uav[20] utilizationEnergyOverdrawMaintenance 0
scalar OsgEarthNet.uav[20] utilizationCountMissions 19
scalar OsgEarthNet.uav[20] utilizationCountManeuversMission 206
scalar OsgEarthNet.uav[20] utilizationCountManeuversMaintenance 38
scalar OsgEarthNet.uav[20] utilizationCountChargeState 19
scalar OsgEarthNet.uav[20] utilizationCountOverdrawnAfterMission 0
scalar OsgEarthNet.uav[20] utilizationCountIdleState 19
scalar OsgEarthNet.uav[20] utilizationFail 0
scalar OsgEarthNet.uav[20] simulationTime 259200
scalar OsgEarthNet.uav[21] utilizationSecMission 36743.853537251
scalar OsgEarthNet.uav[21] utilizationSecMaintenance 16283.673342427
scalar OsgEarthNet.uav[21] utilizationSecCharge 192440
scalar OsgEarthNet.uav[21] utilizationSecIdle 13732.472120322
scalar OsgEarthNet.uav[21] utilizationEnergyMission 169923.7782541
scalar OsgEarthNet.uav[21] utilizationEnergyMaintenance 76893.128952026
scalar OsgEarthNet.uav[21] utilizationEnergyCharge 243215.90185547
scalar OsgEarthNet.uav[21] utilizationEnergyOverdrawMission 0
scalar OsgEarthNet.uav[21] utilizationEnergyOverdrawMaintenance 0
scalar OsgEarthNet.uav[21] utilizationCountMissions 52
scalar OsgEarthNet.uav[21] utilizationCountManeuversMission 689
scalar OsgEarthNet.uav[21] utilizationCountManeuversMaintenance 105
scalar OsgEarthNet.uav[21] utilizationCountChargeState 52
scalar OsgEarthNet.uav[21] utilizationCountOverdrawnAfterMission 0
scalar OsgEarthNet.uav[21] utilizationCountIdleState 32
scalar OsgEarthNet.uav[21] utilizationFail 0
scalar OsgEarthNet.uav[21] simulationTime 259200
scalar OsgEarthNet.uav[22] utilizationSecMission 41417.201374255
scalar OsgEarthNet.uav[22] utilizationSecMaintenance 7400.7976257445
scalar OsgEarthNet.uav[22] utilizationSecCharge 162620
scalar OsgEarthNet.uav[22] utilizationSecIdle 47762
scalar OsgEarthNet.uav[22] utilizationEnergyMission 189763.68573994
scalar OsgEarthNet.uav[22] utilizationEnergyMaintenance 34472.38533783
scalar OsgEarthNet.uav[22] utilizationEnergyCharge 221172.96142578
scalar OsgEarthNet.uav[22] utilizationEnergyOverdrawMission 0
scalar OsgEarthNet.uav[22] utilizationEnergyOverdrawMaintenance 0
scalar OsgEarthNet.uav[22] utilizationCountMissions 46
scalar OsgEarthNet.uav[22] utilizationCountManeuversMission 654
scalar OsgEarthNet.uav[22] utilizationCountManeuversMaintenance 92
scalar OsgEarthNet.uav[22] utilizationCountChargeState 46
scalar OsgEarthNet.uav[22] utilizationCountOverdrawnAfterMission 0
scalar OsgEarthNet.uav[22] utilizationCountIdleState 15
scalar OsgEarthNet.uav[22] utilizationFail 0
scalar OsgEarthNet.uav[22] simulationTime 259200
scalar OsgEarthNet.uav[23] utilizationSecMission 13132.991151698
scalar OsgEarthNet.uav[23] utilizationSecMaintenance 6733.6467405937
scalar OsgEarthNet.uav[23] utilizationSecCharge 73330
scalar OsgEarthNet.uav[23] utilizationSecIdle 166003.36110771
scalar OsgEarthNet.uav[23] utilizationEnergyMission 61080.505989075
scalar OsgEarthNet.uav[23] utilizationEnergyMaintenance 32162.536239624
scalar OsgEarthNet.uav[23] utilizationEnergyCharge 93243.051757812
scalar OsgEarthNet.uav[23] utilizationEnergyOverdrawMission 0
scalar OsgEarthNet.uav[23] utilizationEnergyOverdrawMaintenance 0
scalar OsgEarthNet.uav[23] utilizationCountMissions 20
scalar OsgEarthNet.uav[23] utilizationCountManeuversMission 215
scalar OsgEarthNet.uav[23] utilizationCountManeuversMaintenance 40
scalar OsgEarthNet.uav[23] utilizationCountChargeState 20
scalar OsgEarthNet.uav[23] utilizationCountOverdrawnAfterMission 0
scalar OsgEarthNet.uav[23] utilizationCountIdleState 16
scalar OsgEarthNet.uav[23] utilizationFail 0
scalar OsgEarthNet.uav[23] simulationTime 259200
scalar OsgEarthNet.uav[24] utilizationSecMission 11386.886013043
scalar OsgEarthNet.uav[24] utilizationSecMaintenance 6674.3787490272
scalar OsgEarthNet.uav[24] utilizationSecCharge 67200
scalar OsgEarthNet.uav[24] utilizationSecIdle 173938.73423793
scalar OsgEarthNet.uav[24] utilizationEnergyMission 52715.601448059
scalar OsgEarthNet.uav[24] utilizationEnergyMaintenance 32396.299503326
scalar OsgEarthNet.uav[24] utilizationEnergyCharge 85111.879394531
scalar OsgEarthNet.uav[24] utilizationEnergyOverdrawMission 0
scalar OsgEarthNet.uav[24] utilizationEnergyOverdrawMaintenance 0
scalar OsgEarthNet.uav[24] utilizationCountMissions 18
scalar OsgEarthNet.uav[24] utilizationCountManeuversMission 183
scalar OsgEarthNet.uav[24] utilizationCountManeuversMaintenance 36
scalar OsgEarthNet.uav[24] utilizationCountChargeState 18
scalar OsgEarthNet.uav[24] utilizationCountOverdrawnAfterMission 0
scalar OsgEarthNet.uav[24] utilizationCountIdleState 17
scalar OsgEarthNet.uav[24] utilizationFail 0
scalar OsgEarthNet.uav[24] simulationTime 259200
scalar OsgEarthNet.uav[25] utilizationSecMission 27567.417475558
scalar OsgEarthNet.uav[25] utilizationSecMaintenance 8180.4897327748
scalar OsgEarthNet.uav[25] utilizationSecCharge 130090.41874008
scalar OsgEarthNet.uav[25] utilizationSecIdle 93361.673051586
scalar OsgEarthNet.uav[25] utilizationEnergyMission 127034.49905396
scalar OsgEarthNet.uav[25] utilizationEnergyMaintenance 38608.882198334
scalar OsgEarthNet.uav[25] utilizationEnergyCharge 165598.95751953
scalar OsgEarthNet.uav[25] utilizationEnergyOverdrawMission 0
scalar OsgEarthNet.uav[25] utilizationEnergyOverdrawMaintenance 0
scalar OsgEarthNet.uav[25] utilizationCountMissions 35
scalar OsgEarthNet.uav[25] utilizationCountManeuversMission 431
scalar OsgEarthNet.uav[25] utilizationCountManeuversMaintenance 70
scalar OsgEarthNet.uav[25] utilizationCountChargeState 35
scalar OsgEarthNet.uav[25] utilizationCountOverdrawnAfterMission 0
scalar OsgEarthNet.uav[25] utilizationCountIdleState 28
scalar OsgEarthNet.uav[25] utilizationFail 0
scalar OsgEarthNet.uav[25] simulationTime 259200
scalar OsgEarthNet.uav[26] utilizationSecMission 11052.159368906
scalar OsgEarthNet.uav[26] utilizationSecMaintenance 4875.6265512243
scalar OsgEarthNet.uav[26] utilizationSecCharge 58070
scalar OsgEarthNet.uav[26] utilizationSecIdle 185202.21307987
scalar OsgEarthNet.uav[26] utilizationEnergyMission 50683.331855774
scalar OsgEarthNet.uav[26] utilizationEnergyMaintenance 23420.212097168
scalar OsgEarthNet.uav[26] utilizationEnergyCharge 74103.55859375
scalar OsgEarthNet.uav[26] utilizationEnergyOverdrawMission 0
scalar OsgEarthNet.uav[26] utilizationEnergyOverdrawMaintenance 0
scalar OsgEarthNet.uav[26] utilizationCountMissions 16
scalar OsgEarthNet.uav[26] utilizationCountManeuversMission 172
scalar OsgEarthNet.uav[26] utilizationCountManeuversMaintenance 32
scalar OsgEarthNet.uav[26] utilizationCountChargeState 16
scalar OsgEarthNet.uav[26] utilizationCountOverdrawnAfterMission 0
scalar OsgEarthNet.uav[26] utilizationCountIdleState 14
scalar OsgEarthNet.uav[26] utilizationFail 0
scalar OsgEarthNet.uav[26] simulationTime 259200
scalar OsgEarthNet.uav[27] utilizationSecMission 36211.207347043
scalar OsgEarthNet.uav[27] utilizationSecMaintenance 16370.077410455
scalar OsgEarthNet.uav[27] utilizationSecCharge 191058.36527447
scalar OsgEarthNet.uav[27] utilizationSecIdle 15560.34896803
scalar OsgEarthNet.uav[27] utilizationEnergyMission 168177.55304337
scalar OsgEarthNet.uav[27] utilizationEnergyMaintenance 77085.237930298
scalar OsgEarthNet.uav[27] utilizationEnergyCharge 243226.60058594
scalar OsgEarthNet.uav[27] utilizationEnergyOverdrawMission 0
scalar OsgEarthNet.uav[27] utilizationEnergyOverdrawMaintenance 0
scalar OsgEarthNet.uav[27] utilizationCountMissions 52
scalar OsgEarthNet.uav[27] utilizationCountManeuversMission 678
scalar OsgEarthNet.uav[27] utilizationCountManeuversMaintenance 104
scalar OsgEarthNet.uav[27] utilizationCountChargeState 52
scalar OsgEarthNet.uav[27] utilizationCountOverdrawnAfterMission 0
scalar OsgEarthNet.uav[27] utilizationCountIdleState 28
scalar OsgEarthNet.uav[27] utilizationFail 0
scalar OsgEarthNet.uav[27] simulationTime 259200
scalar OsgEarthNet.uav[28] utilizationSecMission 32063.402614129
scalar OsgEarthNet.uav[28] utilizationSecMaintenance 11238.001975969
scalar OsgEarthNet.uav[28] utilizationSecCharge 154221.94110058
scalar OsgEarthNet.uav[28] utilizationSecIdle 61676.653309323
scalar OsgEarthNet.uav[28] utilizationEnergyMission 148190.87607574
scalar OsgEarthNet.uav[28] utilizationEnergyMaintenance 53875.176395416
scalar OsgEarthNet.uav[28] utilizationEnergyCharge 200515.49121094
scalar OsgEarthNet.uav[28] utilizationEnergyOverdrawMission 0
scalar OsgEarthNet.uav[28] utilizationEnergyOverdrawMaintenance 0
scalar OsgEarthNet.uav[28] utilizationCountMissions 43
scalar OsgEarthNet.uav[28] utilizationCountManeuversMission 495
scalar OsgEarthNet.uav[28] utilizationCountManeuversMaintenance 86
scalar OsgEarthNet.uav[28] utilizationCountChargeState 43
scalar OsgEarthNet.uav[28] utilizationCountOverdrawnAfterMission 0
scalar OsgEarthNet.uav[28] utilizationCountIdleState 26
scalar OsgEarthNet.uav[28] utilizationFail 0
scalar OsgEarthNet.uav[28] simulationTime 259200
scalar OsgEarthNet.uav[29] utilizationSecMission 28039.81874386
scalar OsgEarthNet.uav[29] utilizationSecMaintenance 9508.4610596781
scalar OsgEarthNet.uav[29] utilizationSecCharge 136900
scalar OsgEarthNet.uav[29] utilizationSecIdle 84751.719196462
scalar OsgEarthNet.uav[29] utilizationEnergyMission 132076.33145142
scalar OsgEarthNet.uav[29] utilizationEnergyMaintenance 44754.779136658
scalar OsgEarthNet.uav[29] utilizationEnergyCharge 176751.47460938
scalar OsgEarthNet.uav[29] utilizationEnergyOverdrawMission 0
scalar OsgEarthNet.uav[29] utilizationEnergyOverdrawMaintenance 0
scalar OsgEarthNet.uav[29] utilizationCountMissions 38
scalar OsgEarthNet.uav[29] utilizationCountManeuversMission 424
scalar OsgEarthNet.uav[29] utilizationCountManeuversMaintenance 76
scalar OsgEarthNet.uav[29] utilizationCountChargeState 38
scalar OsgEarthNet.uav[29] utilizationCountOverdrawnAfterMission 0
scalar OsgEarthNet.uav[29] utilizationCountIdleState 21
scalar OsgEarthNet.uav[29] utilizationFail 0
scalar OsgEarthNet.uav[29] simulationTime 259200
scalar OsgEarthNet.uav[30] utilizationSecMission 36738.406897569
scalar OsgEarthNet.uav[30] utilizationSecMaintenance 11435.295893068
scalar OsgEarthNet.uav[30] utilizationSecCharge 173670.11626199
scalar OsgEarthNet.uav[30] utilizationSecIdle 37356.17994737
scalar OsgEarthNet.uav[30] utilizationEnergyMission 170035.88409424
scalar OsgEarthNet.uav[30] utilizationEnergyMaintenance 55101.025047302
scalar OsgEarthNet.uav[30] utilizationEnergyCharge 223068.84106445
scalar OsgEarthNet.uav[30] utilizationEnergyOverdrawMission 0
scalar OsgEarthNet.uav[30] utilizationEnergyOverdrawMaintenance 0
scalar OsgEarthNet.uav[30] utilizationCountMissions 49
scalar OsgEarthNet.uav[30] utilizationCountManeuversMission 557
scalar OsgEarthNet.uav[30] utilizationCountManeuversMaintenance 98
scalar OsgEarthNet.uav[30] utilizationCountChargeState 49
scalar OsgEarthNet.uav[30] utilizationCountOverdrawnAfterMission 0
scalar OsgEarthNet.uav[30] utilizationCountIdleState 28
scalar OsgEarthNet.uav[30] utilizationFail 0
scalar OsgEarthNet.uav[30] simulationTime 259200
scalar OsgEarthNet.uav[31] utilizationSecMission 10132.402589118
scalar OsgEarthNet.uav[31] utilizationSecMaintenance 5898.8099577387
scalar OsgEarthNet.uav[31] utilizationSecCharge 60240
scalar OsgEarthNet.uav[31] utilizationSecIdle 182928.78645314
scalar OsgEarthNet.uav[31] utilizationEnergyMission 47750.371391296
scalar OsgEarthNet.uav[31] utilizationEnergyMaintenance 28136.848571777
scalar OsgEarthNet.uav[31] utilizationEnergyCharge 75887.229980469
scalar OsgEarthNet.uav[31] utilizationEnergyOverdrawMission 0
scalar OsgEarthNet.uav[31] utilizationEnergyOverdrawMaintenance 0
scalar OsgEarthNet.uav[31] utilizationCountMissions 16
scalar OsgEarthNet.uav[31] utilizationCountManeuversMission 163
scalar OsgEarthNet.uav[31] utilizationCountManeuversMaintenance 31
scalar OsgEarthNet.uav[31] utilizationCountChargeState 16
scalar OsgEarthNet.uav[31] utilizationCountOverdrawnAfterMission 0
scalar OsgEarthNet.uav[31] utilizationCountIdleState 17
scalar OsgEarthNet.uav[31] utilizationFail 0
scalar OsgEarthNet.uav[31] simulationTime 259200
scalar OsgEarthNet.uav[32] utilizationSecMission 36095.713020409
scalar OsgEarthNet.uav[32] utilizationSecMaintenance 16369.311821355
scalar OsgEarthNet.uav[32] utilizationSecCharge 192870.86928501
scalar OsgEarthNet.uav[32] utilizationSecIdle 13864.104873224
scalar OsgEarthNet.uav[32] utilizationEnergyMission 169617.95058441
scalar OsgEarthNet.uav[32] utilizationEnergyMaintenance 77096.149623871
scalar OsgEarthNet.uav[32] utilizationEnergyCharge 243418.31628418
scalar OsgEarthNet.uav[32] utilizationEnergyOverdrawMission 0
scalar OsgEarthNet.uav[32] utilizationEnergyOverdrawMaintenance 0
scalar OsgEarthNet.uav[32] utilizationCountMissions 53
scalar OsgEarthNet.uav[32] utilizationCountManeuversMission 676
scalar OsgEarthNet.uav[32] utilizationCountManeuversMaintenance 106
scalar OsgEarthNet.uav[32] utilizationCountChargeState 53
scalar OsgEarthNet.uav[32] utilizationCountOverdrawnAfterMission 0
scalar OsgEarthNet.uav[32] utilizationCountIdleState 35
scalar OsgEarthNet.uav[32] utilizationFail 0
scalar OsgEarthNet.uav[32] simulationTime 259200
scalar OsgEarthNet.uav[33] utilizationSecMission 27127.240143958
scalar OsgEarthNet.uav[33] utilizationSecMaintenance 9307.865968583
scalar OsgEarthNet.uav[33] utilizationSecCharge 129780
scalar OsgEarthNet.uav[33] utilizationSecIdle 92984.892887459
scalar OsgEarthNet.uav[33] utilizationEnergyMission 124606.86727908
scalar OsgEarthNet.uav[33] utilizationEnergyMaintenance 45195.056728363
scalar OsgEarthNet.uav[33] utilizationEnergyCharge 169639.41064453
scalar OsgEarthNet.uav[33] utilizationEnergyOverdrawMission 0
scalar OsgEarthNet.uav[33] utilizationEnergyOverdrawMaintenance 0
scalar OsgEarthNet.uav[33] utilizationCountMissions 36
scalar OsgEarthNet.uav[33] utilizationCountManeuversMission 419
scalar OsgEarthNet.uav[33] utilizationCountManeuversMaintenance 71
scalar OsgEarthNet.uav[33] utilizationCountChargeState 36
scalar OsgEarthNet.uav[33] utilizationCountOverdrawnAfterMission 0
scalar OsgEarthNet.uav[33] utilizationCountIdleState 24
scalar OsgEarthNet.uav[33] utilizationFail 0
scalar OsgEarthNet.uav[33] simulationTime 259200
scalar OsgEarthNet.uav[34] utilizationSecMission 36149.647735716
scalar OsgEarthNet.uav[34] utilizationSecMaintenance 16382.010401384
scalar OsgEarthNet.uav[34] utilizationSecCharge 192470
scalar OsgEarthNet.uav[34] utilizationSecIdle 14198.3408629
scalar OsgEarthNet.uav[34] utilizationEnergyMission 167535.65422058
scalar OsgEarthNet.uav[34] utilizationEnergyMaintenance 76422.886519215
scalar OsgEarthNet.uav[34] utilizationEnergyCharge 243633.49853516
scalar OsgEarthNet.uav[34] utilizationEnergyOverdrawMission 0
scalar OsgEarthNet.uav[34] utilizationEnergyOverdrawMaintenance 0
scalar OsgEarthNet.uav[34] utilizationCountMissions 52
scalar OsgEarthNet.uav[34] utilizationCountManeuversMission 677
scalar OsgEarthNet.uav[34] utilizationCountManeuversMaintenance 105
scalar OsgEarthNet.uav[34] utilizationCountChargeState 52
scalar OsgEarthNet.uav[34] utilizationCountOverdrawnAfterMission 0
scalar OsgEarthNet.uav[34] utilizationCountIdleState 29
scalar OsgEarthNet.uav[34] utilizationFail 0
scalar OsgEarthNet.uav[34] simulationTime 259200
scalar OsgEarthNet.uav[35] utilizationSecMission 41570.7999443
scalar OsgEarthNet.uav[35] utilizationSecMaintenance 7497.3663538904
scalar OsgEarthNet.uav[35] utilizationSecCharge 164405.80943381
scalar OsgEarthNet.uav[35] utilizationSecIdle 45726.023268001
scalar OsgEarthNet.uav[35] utilizationEnergyMission 190467.59695435
scalar OsgEarthNet.uav[35] utilizationEnergyMaintenance 34199.454833984
scalar OsgEarthNet.uav[35] utilizationEnergyCharge 222779.59838867
scalar OsgEarthNet.uav[35] utilizationEnergyOverdrawMission 0
scalar OsgEarthNet.uav[35] utilizationEnergyOverdrawMaintenance 0
scalar OsgEarthNet.uav[35] utilizationCountMissions 47
scalar OsgEarthNet.uav[35] utilizationCountManeuversMission 656
scalar OsgEarthNet.uav[35] utilizationCountManeuversMaintenance 94
scalar OsgEarthNet.uav[35] utilizationCountChargeState 47
scalar OsgEarthNet.uav[35] utilizationCountOverdrawnAfterMission 0
scalar OsgEarthNet.uav[35] utilizationCountIdleState 16
scalar OsgEarthNet.uav[35] utilizationFail 0
scalar OsgEarthNet.uav[35] simulationTime 259200
scalar OsgEarthNet.uav[36] utilizationSecMission 30881.966354406
scalar OsgEarthNet.uav[36] utilizationSecMaintenance 12471.789942317
scalar OsgEarthNet.uav[36] utilizationSecCharge 157420
scalar OsgEarthNet.uav[36] utilizationSecIdle 58426.242703277
scalar OsgEarthNet.uav[36] utilizationEnergyMission 144272.48139954
scalar OsgEarthNet.uav[36] utilizationEnergyMaintenance 59432.311508179
scalar OsgEarthNet.uav[36] utilizationEnergyCharge 203648.48730469
scalar OsgEarthNet.uav[36] utilizationEnergyOverdrawMission 0
scalar OsgEarthNet.uav[36] utilizationEnergyOverdrawMaintenance 0
scalar OsgEarthNet.uav[36] utilizationCountMissions 44
scalar OsgEarthNet.uav[36] utilizationCountManeuversMission 491
scalar OsgEarthNet.uav[36] utilizationCountManeuversMaintenance 88
scalar OsgEarthNet.uav[36] utilizationCountChargeState 44
scalar OsgEarthNet.uav[36] utilizationCountOverdrawnAfterMission 0
scalar OsgEarthNet.uav[36] utilizationCountIdleState 21
scalar OsgEarthNet.uav[36] utilizationFail 0
scalar OsgEarthNet.uav[36] simulationTime 259200
scalar OsgEarthNet.uav[37] utilizationSecMission 36211.207347043
scalar OsgEarthNet.uav[37] utilizationSecMaintenance 16510.691331985
scalar OsgEarthNet.uav[37] utilizationSecCharge 193085.75675636
scalar OsgEarthNet.uav[37] utilizationSecIdle 13392.34356461
scalar OsgEarthNet.uav[37] utilizationEnergyMission 168203.68452454
scalar OsgEarthNet.uav[37] utilizationEnergyMaintenance 76949.275314331
scalar OsgEarthNet.uav[37] utilizationEnergyCharge 245409.64746094
scalar OsgEarthNet.uav[37] utilizationEnergyOverdrawMission 0
scalar OsgEarthNet.uav[37] utilizationEnergyOverdrawMaintenance 0
scalar OsgEarthNet.uav[37] utilizationCountMissions 52
scalar OsgEarthNet.uav[37] utilizationCountManeuversMission 678
scalar OsgEarthNet.uav[37] utilizationCountManeuversMaintenance 104
scalar OsgEarthNet.uav[37] utilizationCountChargeState 52
scalar OsgEarthNet.uav[37] utilizationCountOverdrawnAfterMission 0
scalar OsgEarthNet.uav[37] utilizationCountIdleState 25
scalar OsgEarthNet.uav[37] utilizationFail 0
scalar OsgEarthNet.uav[37] simulationTime 259200
scalar OsgEarthNet.uav[38] utilizationSecMission 41234.018953818
scalar OsgEarthNet.uav[38] utilizationSecMaintenance 7643.8153218734
scalar OsgEarthNet.uav[38] utilizationSecCharge 165332.706373
scalar OsgEarthNet.uav[38] utilizationSecIdle 44989.458351306
scalar OsgEarthNet.uav[38] utilizationEnergyMission 189300.3259964
scalar OsgEarthNet.uav[38] utilizationEnergyMaintenance 35406.753387451
scalar OsgEarthNet.uav[38] utilizationEnergyCharge 224164.2097168
scalar OsgEarthNet.uav[38] utilizationEnergyOverdrawMission 0
scalar OsgEarthNet.uav[38] utilizationEnergyOverdrawMaintenance 0
scalar OsgEarthNet.uav[38] utilizationCountMissions 47
scalar OsgEarthNet.uav[38] utilizationCountManeuversMission 652
scalar OsgEarthNet.uav[38] utilizationCountManeuversMaintenance 94
scalar OsgEarthNet.uav[38] utilizationCountChargeState 47
scalar OsgEarthNet.uav[38] utilizationCountOverdrawnAfterMission 0
scalar OsgEarthNet.uav[38] utilizationCountIdleState 16
scalar OsgEarthNet.uav[38] utilizationFail 0
scalar OsgEarthNet.uav[38] simulationTime 259200
scalar OsgEarthNet.uav[39] utilizationSecMission 22768.658893147
scalar OsgEarthNet.uav[39] utilizationSecMaintenance 8623.9078551981
scalar OsgEarthNet.uav[39] utilizationSecCharge 112850
scalar OsgEarthNet.uav[39] utilizationSecIdle 114957.43225166
scalar OsgEarthNet.uav[39] utilizationEnergyMission 105096.42110186
scalar OsgEarthNet.uav[39] utilizationEnergyMaintenance 40947.566680908
scalar OsgEarthNet.uav[39] utilizationEnergyCharge 143839.25634766
scalar OsgEarthNet.uav[39] utilizationEnergyOverdrawMission 0
scalar OsgEarthNet.uav[39] utilizationEnergyOverdrawMaintenance 0
scalar OsgEarthNet.uav[39] utilizationCountMissions 31
scalar OsgEarthNet.uav[39] utilizationCountManeuversMission 354
scalar OsgEarthNet.uav[39] utilizationCountManeuversMaintenance 63
scalar OsgEarthNet.uav[39] utilizationCountChargeState 31
scalar OsgEarthNet.uav[39] utilizationCountOverdrawnAfterMission 0
scalar OsgEarthNet.uav[39] utilizationCountIdleState 22
scalar OsgEarthNet.uav[39] utilizationFail 0
scalar OsgEarthNet.uav[39] simulationTime 259200
scalar OsgEarthNet.uav[40] utilizationSecMission 29078.677793251
scalar OsgEarthNet.uav[40] utilizationSecMaintenance 10578.272017023
scalar OsgEarthNet.uav[40] utilizationSecCharge 143560
scalar OsgEarthNet.uav[40] utilizationSecIdle 75983.049189727
scalar OsgEarthNet.uav[40] utilizationEnergyMission 135704.48434067
scalar OsgEarthNet.uav[40] utilizationEnergyMaintenance 50583.300964795
scalar OsgEarthNet.uav[40] utilizationEnergyCharge 182175.25732422
scalar OsgEarthNet.uav[40] utilizationEnergyOverdrawMission 0
scalar OsgEarthNet.uav[40] utilizationEnergyOverdrawMaintenance 0
scalar OsgEarthNet.uav[40] utilizationCountMissions 40
scalar OsgEarthNet.uav[40] utilizationCountManeuversMission 451
scalar OsgEarthNet.uav[40] utilizationCountManeuversMaintenance 80
scalar OsgEarthNet.uav[40] utilizationCountChargeState 39
scalar OsgEarthNet.uav[40] utilizationCountOverdrawnAfterMission 0
scalar OsgEarthNet.uav[40] utilizationCountIdleState 28
scalar OsgEarthNet.uav[40] utilizationFail 0
scalar OsgEarthNet.uav[40] simulationTime 259200
scalar OsgEarthNet.uav[41] utilizationSecMission 26330.69401222
scalar OsgEarthNet.uav[41] utilizationSecMaintenance 11527.304480397
scalar OsgEarthNet.uav[41] utilizationSecCharge 138500
scalar OsgEarthNet.uav[41] utilizationSecIdle 82842.000507383
scalar OsgEarthNet.uav[41] utilizationEnergyMission 122518.77545166
scalar OsgEarthNet.uav[41] utilizationEnergyMaintenance 55173.412084135
scalar OsgEarthNet.uav[41] utilizationEnergyCharge 177602.98681641
scalar OsgEarthNet.uav[41] utilizationEnergyOverdrawMission 0
scalar OsgEarthNet.uav[41] utilizationEnergyOverdrawMaintenance 34.193496704102
scalar OsgEarthNet.uav[41] utilizationCountMissions 38
scalar OsgEarthNet.uav[41] utilizationCountManeuversMission 436
scalar OsgEarthNet.uav[41] utilizationCountManeuversMaintenance 77
scalar OsgEarthNet.uav[41] utilizationCountChargeState 38
scalar OsgEarthNet.uav[41] utilizationCountOverdrawnAfterMission 1
scalar OsgEarthNet.uav[41] utilizationCountIdleState 22
scalar OsgEarthNet.uav[41] utilizationFail 0
scalar OsgEarthNet.uav[41] simulationTime 259200
scalar OsgEarthNet.uav[42] utilizationSecMission 32988.671594972
scalar OsgEarthNet.uav[42] utilizationSecMaintenance 10677.499663998
scalar OsgEarthNet.uav[42] utilizationSecCharge 155161.82774103
scalar OsgEarthNet.uav[42] utilizationSecIdle 60372
scalar OsgEarthNet.uav[42] utilizationEnergyMission 152544.59263112
scalar OsgEarthNet.uav[42] utilizationEnergyMaintenance 51341.01991272
scalar OsgEarthNet.uav[42] utilizationEnergyCharge 200557.76672363
scalar OsgEarthNet.uav[42] utilizationEnergyOverdrawMission 0
scalar OsgEarthNet.uav[42] utilizationEnergyOverdrawMaintenance 0
scalar OsgEarthNet.uav[42] utilizationCountMissions 44
scalar OsgEarthNet.uav[42] utilizationCountManeuversMission 509
scalar OsgEarthNet.uav[42] utilizationCountManeuversMaintenance 87
scalar OsgEarthNet.uav[42] utilizationCountChargeState 44
scalar OsgEarthNet.uav[42] utilizationCountOverdrawnAfterMission 0
scalar OsgEarthNet.uav[42] utilizationCountIdleState 30
scalar OsgEarthNet.uav[42] utilizationFail 0
scalar OsgEarthNet.uav[42] simulationTime 259200
scalar OsgEarthNet.uav[43] utilizationSecMission 13247.157928298
scalar OsgEarthNet.uav[43] utilizationSecMaintenance 5006.3925368175
scalar OsgEarthNet.uav[43] utilizationSecCharge 67470
scalar OsgEarthNet.uav[43] utilizationSecIdle 173476.44853488
scalar OsgEarthNet.uav[43] utilizationEnergyMission 60739.372901917
scalar OsgEarthNet.uav[43] utilizationEnergyMaintenance 24042.086051941
scalar OsgEarthNet.uav[43] utilizationEnergyCharge 84781.461914062
scalar OsgEarthNet.uav[43] utilizationEnergyOverdrawMission 0
scalar OsgEarthNet.uav[43] utilizationEnergyOverdrawMaintenance 0
scalar OsgEarthNet.uav[43] utilizationCountMissions 18
scalar OsgEarthNet.uav[43] utilizationCountManeuversMission 212
scalar OsgEarthNet.uav[43] utilizationCountManeuversMaintenance 36
scalar OsgEarthNet.uav[43] utilizationCountChargeState 18
scalar OsgEarthNet.uav[43] utilizationCountOverdrawnAfterMission 0
scalar OsgEarthNet.uav[43] utilizationCountIdleState 18
scalar OsgEarthNet.uav[43] utilizationFail 0
scalar OsgEarthNet.uav[43] simulationTime 259200
scalar OsgEarthNet.uav[44] utilizationSecMission 35903.409290406
scalar OsgEarthNet.uav[44] utilizationSecMaintenance 16358.573876344
scalar OsgEarthNet.uav[44] utilizationSecCharge 191511.66956693
scalar OsgEarthNet.uav[44] utilizationSecIdle 15426.34626632
scalar OsgEarthNet.uav[44] utilizationEnergyMission 166220.741642
scalar OsgEarthNet.uav[44] utilizationEnergyMaintenance 77324.097396851
scalar OsgEarthNet.uav[44] utilizationEnergyCharge 243126.68652344
scalar OsgEarthNet.uav[44] utilizationEnergyOverdrawMission 0
scalar OsgEarthNet.uav[44] utilizationEnergyOverdrawMaintenance 0
scalar OsgEarthNet.uav[44] utilizationCountMissions 52
scalar OsgEarthNet.uav[44] utilizationCountManeuversMission 673
scalar OsgEarthNet.uav[44] utilizationCountManeuversMaintenance 104
scalar OsgEarthNet.uav[44] utilizationCountChargeState 52
scalar OsgEarthNet.uav[44] utilizationCountOverdrawnAfterMission 0
scalar OsgEarthNet.uav[44] utilizationCountIdleState 30
scalar OsgEarthNet.uav[44] utilizationFail 0
scalar OsgEarthNet.uav[44] simulationTime 259200
scalar OsgEarthNet.uav[45] utilizationSecMission 22491.647204546
scalar OsgEarthNet.uav[45] utilizationSecMaintenance 7099.2891812422
scalar OsgEarthNet.uav[45] utilizationSecCharge 106640
scalar OsgEarthNet.uav[45] utilizationSecIdle 122969.06261421
scalar OsgEarthNet.uav[45] utilizationEnergyMission 102234.53192902
scalar OsgEarthNet.uav[45] utilizationEnergyMaintenance 33543.934627533
scalar OsgEarthNet.uav[45] utilizationEnergyCharge 137045.20068359
scalar OsgEarthNet.uav[45] utilizationEnergyOverdrawMission 0
scalar OsgEarthNet.uav[45] utilizationEnergyOverdrawMaintenance 0
scalar OsgEarthNet.uav[45] utilizationCountMissions 29
scalar OsgEarthNet.uav[45] utilizationCountManeuversMission 358
scalar OsgEarthNet.uav[45] utilizationCountManeuversMaintenance 58
scalar OsgEarthNet.uav[45] utilizationCountChargeState 29
scalar OsgEarthNet.uav[45] utilizationCountOverdrawnAfterMission 0
scalar OsgEarthNet.uav[45] utilizationCountIdleState 22
scalar OsgEarthNet.uav[45] utilizationFail 0
scalar OsgEarthNet.uav[45] simulationTime 259200
scalar OsgEarthNet.uav[46] utilizationSecMission 22906.754027529
scalar OsgEarthNet.uav[46] utilizationSecMaintenance 8866.5583105072
scalar OsgEarthNet.uav[46] utilizationSecCharge 118070
scalar OsgEarthNet.uav[46] utilizationSecIdle 109356.68666196
scalar OsgEarthNet.uav[46] utilizationEnergyMission 106676.26439667
scalar OsgEarthNet.uav[46] utilizationEnergyMaintenance 42677.735107422
scalar OsgEarthNet.uav[46] utilizationEnergyCharge 149231.65234375
scalar OsgEarthNet.uav[46] utilizationEnergyOverdrawMission 0
scalar OsgEarthNet.uav[46] utilizationEnergyOverdrawMaintenance 0
scalar OsgEarthNet.uav[46] utilizationCountMissions 32
scalar OsgEarthNet.uav[46] utilizationCountManeuversMission 359
scalar OsgEarthNet.uav[46] utilizationCountManeuversMaintenance 64
scalar OsgEarthNet.uav[46] utilizationCountChargeState 32
scalar OsgEarthNet.uav[46] utilizationCountOverdrawnAfterMission 0
scalar OsgEarthNet.uav[46] utilizationCountIdleState 30
scalar OsgEarthNet.uav[46] utilizationFail 0
scalar OsgEarthNet.uav[46] simulationTime 259200
scalar OsgEarthNet.uav[47] utilizationSecMission 25823.189287663
scalar OsgEarthNet.uav[47] utilizationSecMaintenance 11465.857106777
scalar OsgEarthNet.uav[47] utilizationSecCharge 134945.65542718
scalar OsgEarthNet.uav[47] utilizationSecIdle 86965.297178377
scalar OsgEarthNet.uav[47] utilizationEnergyMission 119553.25220489
scalar OsgEarthNet.uav[47] utilizationEnergyMaintenance 53380.012153625
scalar OsgEarthNet.uav[47] utilizationEnergyCharge 172856.30517578
scalar OsgEarthNet.uav[47] utilizationEnergyOverdrawMission 0
scalar OsgEarthNet.uav[47] utilizationEnergyOverdrawMaintenance 0
scalar OsgEarthNet.uav[47] utilizationCountMissions 37
scalar OsgEarthNet.uav[47] utilizationCountManeuversMission 417
scalar OsgEarthNet.uav[47] utilizationCountManeuversMaintenance 74
scalar OsgEarthNet.uav[47] utilizationCountChargeState 37
scalar OsgEarthNet.uav[47] utilizationCountOverdrawnAfterMission 0
scalar OsgEarthNet.uav[47] utilizationCountIdleState 21
scalar OsgEarthNet.uav[47] utilizationFail 0
scalar OsgEarthNet.uav[47] simulationTime 259200
scalar OsgEarthNet.uav[48] utilizationSecMission 42515.860944799
scalar OsgEarthNet.uav[48] utilizationSecMaintenance 7776.7749959679
scalar OsgEarthNet.uav[48] utilizationSecCharge 170408.51489944
scalar OsgEarthNet.uav[48] utilizationSecIdle 38498.848159794
scalar OsgEarthNet.uav[48] utilizationEnergyMission 195951.24293518
scalar OsgEarthNet.uav[48] utilizationEnergyMaintenance 35599.243694305
scalar OsgEarthNet.uav[48] utilizationEnergyCharge 230599.78808594
scalar OsgEarthNet.uav[48] utilizationEnergyOverdrawMission 0
scalar OsgEarthNet.uav[48] utilizationEnergyOverdrawMaintenance 0
scalar OsgEarthNet.uav[48] utilizationCountMissions 48
scalar OsgEarthNet.uav[48] utilizationCountManeuversMission 670
scalar OsgEarthNet.uav[48] utilizationCountManeuversMaintenance 96
scalar OsgEarthNet.uav[48] utilizationCountChargeState 48
scalar OsgEarthNet.uav[48] utilizationCountOverdrawnAfterMission 0
scalar OsgEarthNet.uav[48] utilizationCountIdleState 17
scalar OsgEarthNet.uav[48] utilizationFail 0
scalar OsgEarthNet.uav[48] simulationTime 259200
scalar OsgEarthNet.uav[49] utilizationSecMission 13469.911639075
scalar OsgEarthNet.uav[49] utilizationSecMaintenance 6664.9114780196
scalar OsgEarthNet.uav[49] utilizationSecCharge 74750.849555294
scalar OsgEarthNet.uav[49] utilizationSecIdle 164314.32632761
scalar OsgEarthNet.uav[49] utilizationEnergyMission 62514.043945313
scalar OsgEarthNet.uav[49] utilizationEnergyMaintenance 31938.055862427
scalar OsgEarthNet.uav[49] utilizationEnergyCharge 94389.701171875
scalar OsgEarthNet.uav[49] utilizationEnergyOverdrawMission 0
scalar OsgEarthNet.uav[49] utilizationEnergyOverdrawMaintenance 0
scalar OsgEarthNet.uav[49] utilizationCountMissions 20
scalar OsgEarthNet.uav[49] utilizationCountManeuversMission 215
scalar OsgEarthNet.uav[49] utilizationCountManeuversMaintenance 40
scalar OsgEarthNet.uav[49] utilizationCountChargeState 20
scalar OsgEarthNet.uav[49] utilizationCountOverdrawnAfterMission 0
scalar OsgEarthNet.uav[49] utilizationCountIdleState 20
scalar OsgEarthNet.uav[49] utilizationFail 0
scalar OsgEarthNet.uav[49] simulationTime 259200
scalar OsgEarthNet.cs[0] usedPower 196843.05714622
scalar OsgEarthNet.cs[0] chargedPower 196843.05714622
scalar OsgEarthNet.cs[0] chargedMobileNodes 20
scalar OsgEarthNet.cs[0] reservations 42
scalar OsgEarthNet.cs[1] usedPower 966778.77607656
scalar OsgEarthNet.cs[1] chargedPower 966778.77607656
scalar OsgEarthNet.cs[1] chargedMobileNodes 203
scalar OsgEarthNet.cs[1] reservations 206
scalar OsgEarthNet.cs[2] usedPower 1407235.2347737
scalar OsgEarthNet.cs[2] chargedPower 1407235.2347737
scalar OsgEarthNet.cs[2] chargedMobileNodes 132
scalar OsgEarthNet.cs[2] reservations 295
scalar OsgEarthNet.cs[3] usedPower 1702007.5848646
scalar OsgEarthNet.cs[3] chargedPower 1702007.5848646
scalar OsgEarthNet.cs[3] chargedMobileNodes 204
scalar OsgEarthNet.cs[3] reservations 365
scalar OsgEarthNet.cs[4] usedPower 621235.55904267
scalar OsgEarthNet.cs[4] chargedPower 621235.55904267
scalar OsgEarthNet.cs[4] chargedMobileNodes 86
scalar OsgEarthNet.cs[4] reservations 134
scalar OsgEarthNet.cs[5] usedPower 294467.55060918
scalar OsgEarthNet.cs[5] chargedPower 294467.55060918
scalar OsgEarthNet.cs[5] chargedMobileNodes 44
scalar OsgEarthNet.cs[5] reservations 63
scalar OsgEarthNet.cs[6] usedPower 2937097.775178
scalar OsgEarthNet.cs[6] chargedPower 2937097.775178
scalar OsgEarthNet.cs[6] chargedMobileNodes 375
scalar OsgEarthNet.cs[6] reservations 638

