version 2
run Szenario_Hotel_Gabelbach-3-20180710-13:18:01-31596
attr configname Szenario_Hotel_Gabelbach
attr datetime 20180710-13:18:01
attr experiment Szenario_Hotel_Gabelbach
attr inifile omnetpp.ini
attr iterationvars "$replM=0, $replSearchM=0"
attr iterationvarsf replM=0,replSearchM=0-
attr measurement "$replM=0, $replSearchM=0"
attr network OsgEarthNet
attr processid 31596
attr repetition 3
attr replication #3
attr resultdir results
attr runnumber 3
attr seedset 3
itervar replM 0
itervar replSearchM 0
param *.osgEarthScene.scene "\"Szenario_Hotel_Gabelbach.earth\""
param *.playgroundLatitude 50.6830269
param *.playgroundLongitude 10.8538055
param *.playgroundWidth 3500m
param *.playgroundHeight 3500m
param *.numUAVs 100
param *.cs[0].posX 3537m
param *.cs[0].posY 965m
param *.cs[0].posZ 538m
param *.cs[1].posX 312m
param *.cs[1].posY 1262m
param *.cs[1].posZ 539m
param *.cs[2].posX 2185m
param *.cs[2].posY 3026m
param *.cs[2].posZ 777m
param *.cs[3].posX 10m
param *.cs[3].posY 2200m
param *.cs[3].posZ 560m
param *.cs[4].posX 750m
param *.cs[4].posY 200m
param *.cs[4].posZ 540m
param *.cs[5].posX 2450m
param *.cs[5].posY 180m
param *.cs[5].posZ 524m
param *.cs[6].posX 3140m
param *.cs[6].posY 1790m
param *.cs[6].posZ 606m
param *.numCSs 7
param *.uav[*].replacementMethod 0
param *.missionControl.replacementSearchMethod 0
param *.*.timeStep 10s
param *.uav[*].commandPreviewCommandCount 20
param *.missionControl.missionFiles "\"missions\\\\Szenario_WB_Hotel_Gabelbach_Mission_Hotel.waypoints,missions\\\\Szenario_WB_Hotel_Gabelbach_Mission_Kickelhahn.waypoints,missions\\\\Szenario_WB_Hotel_Gabelbach_Mission_Ilmenau_Sportplatz.waypoints,missions\\\\Szenario_WB_Hotel_Gabelbach_Mission_Manebach_Mitte.waypoints,missions\\\\Szenario_WB_Hotel_Gabelbach_Mission_Manebach_Sued.waypoints\""
param *.missionControl.missionFiles "\"missions\\\\Szenario_WB_Hotel_Gabelbach_Mission_Hotel.waypoints,missions\\\\Szenario_WB_Hotel_Gabelbach_Mission_Kickelhahn.waypoints,missions\\\\Szenario_WB_Hotel_Gabelbach_Mission_Ilmenau_Sportplatz.waypoints,missions\\\\Szenario_WB_Hotel_Gabelbach_Mission_Manebach_Mitte.waypoints,missions\\\\Szenario_WB_Hotel_Gabelbach_Mission_Manebach_Sued.waypoints,missions\\\\Szenario_WB_Hotel_Gabelbach_Hover_HoheSchlaufe.waypoints,missions\\\\Szenario_WB_Hotel_Gabelbach_Hover_Kickelhahn.waypoints,missions\\\\Szenario_WB_Hotel_Gabelbach_Hover_Gabelbachskopf.waypoints,missions\\\\Szenario_WB_Hotel_Gabelbach_Hover_Dachskopf.waypoints\""
param *.uav[0].startX 3537m
param *.uav[0].startY 965m
param *.uav[0].startZ 539m
param *.uav[1].startX 312m
param *.uav[1].startY 1262m
param *.uav[1].startZ 540m
param *.uav[2].startX 2185m
param *.uav[2].startY 3026m
param *.uav[2].startZ 778m
param *.uav[3].startX 3537m
param *.uav[3].startY 965m
param *.uav[3].startZ 539m
param *.uav[4].startX 312m
param *.uav[4].startY 1262m
param *.uav[4].startZ 540m
param *.uav[5].startX 2185m
param *.uav[5].startY 3026m
param *.uav[5].startZ 778m
param *.uav[6].startX 3537m
param *.uav[6].startY 965m
param *.uav[6].startZ 539m
param *.uav[7].startX 312m
param *.uav[7].startY 1262m
param *.uav[7].startZ 540m
param *.uav[8].startX 2185m
param *.uav[8].startY 3026m
param *.uav[8].startZ 778m
param *.uav[9].startX 3537m
param *.uav[9].startY 965m
param *.uav[9].startZ 539m
param *.uav[10].startX 3537m
param *.uav[10].startY 965m
param *.uav[10].startZ 539m
param *.uav[11].startX 312m
param *.uav[11].startY 1262m
param *.uav[11].startZ 540m
param *.uav[12].startX 2185m
param *.uav[12].startY 3026m
param *.uav[12].startZ 778m
param *.uav[13].startX 3537m
param *.uav[13].startY 965m
param *.uav[13].startZ 539m
param *.uav[14].startX 312m
param *.uav[14].startY 1262m
param *.uav[14].startZ 540m
param *.uav[15].startX 2185m
param *.uav[15].startY 3026m
param *.uav[15].startZ 778m
param *.uav[16].startX 3537m
param *.uav[16].startY 965m
param *.uav[16].startZ 539m
param *.uav[17].startX 312m
param *.uav[17].startY 1262m
param *.uav[17].startZ 540m
param *.uav[18].startX 2185m
param *.uav[18].startY 3026m
param *.uav[18].startZ 778m
param *.uav[19].startX 3537m
param *.uav[19].startY 965m
param *.uav[19].startZ 539m
param *.uav[20].startX 3537m
param *.uav[20].startY 965m
param *.uav[20].startZ 539m
param *.uav[21].startX 312m
param *.uav[21].startY 1262m
param *.uav[21].startZ 540m
param *.uav[22].startX 2185m
param *.uav[22].startY 3026m
param *.uav[22].startZ 778m
param *.uav[23].startX 3537m
param *.uav[23].startY 965m
param *.uav[23].startZ 539m
param *.uav[24].startX 312m
param *.uav[24].startY 1262m
param *.uav[24].startZ 540m
param *.uav[25].startX 2185m
param *.uav[25].startY 3026m
param *.uav[25].startZ 778m
param *.uav[26].startX 3537m
param *.uav[26].startY 965m
param *.uav[26].startZ 539m
param *.uav[27].startX 312m
param *.uav[27].startY 1262m
param *.uav[27].startZ 540m
param *.uav[28].startX 2185m
param *.uav[28].startY 3026m
param *.uav[28].startZ 778m
param *.uav[29].startX 3537m
param *.uav[29].startY 965m
param *.uav[29].startZ 539m
param *.uav[30].startX 3537m
param *.uav[30].startY 965m
param *.uav[30].startZ 539m
param *.uav[31].startX 312m
param *.uav[31].startY 1262m
param *.uav[31].startZ 540m
param *.uav[32].startX 2185m
param *.uav[32].startY 3026m
param *.uav[32].startZ 778m
param *.uav[33].startX 3537m
param *.uav[33].startY 965m
param *.uav[33].startZ 539m
param *.uav[34].startX 312m
param *.uav[34].startY 1262m
param *.uav[34].startZ 540m
param *.uav[35].startX 2185m
param *.uav[35].startY 3026m
param *.uav[35].startZ 778m
param *.uav[36].startX 3537m
param *.uav[36].startY 965m
param *.uav[36].startZ 539m
param *.uav[37].startX 312m
param *.uav[37].startY 1262m
param *.uav[37].startZ 540m
param *.uav[38].startX 2185m
param *.uav[38].startY 3026m
param *.uav[38].startZ 778m
param *.uav[39].startX 3537m
param *.uav[39].startY 965m
param *.uav[39].startZ 539m
param *.uav[40].startX 3537m
param *.uav[40].startY 965m
param *.uav[40].startZ 539m
param *.uav[41].startX 312m
param *.uav[41].startY 1262m
param *.uav[41].startZ 540m
param *.uav[42].startX 2185m
param *.uav[42].startY 3026m
param *.uav[42].startZ 778m
param *.uav[43].startX 3537m
param *.uav[43].startY 965m
param *.uav[43].startZ 539m
param *.uav[44].startX 312m
param *.uav[44].startY 1262m
param *.uav[44].startZ 540m
param *.uav[45].startX 2185m
param *.uav[45].startY 3026m
param *.uav[45].startZ 778m
param *.uav[46].startX 3537m
param *.uav[46].startY 965m
param *.uav[46].startZ 539m
param *.uav[47].startX 312m
param *.uav[47].startY 1262m
param *.uav[47].startZ 540m
param *.uav[48].startX 2185m
param *.uav[48].startY 3026m
param *.uav[48].startZ 778m
param *.uav[49].startX 3537m
param *.uav[49].startY 965m
param *.uav[49].startZ 539m
param *.uav[50].startX 3537m
param *.uav[50].startY 965m
param *.uav[50].startZ 539m
param *.uav[51].startX 312m
param *.uav[51].startY 1262m
param *.uav[51].startZ 540m
param *.uav[52].startX 2185m
param *.uav[52].startY 3026m
param *.uav[52].startZ 778m
param *.uav[53].startX 3537m
param *.uav[53].startY 965m
param *.uav[53].startZ 539m
param *.uav[54].startX 312m
param *.uav[54].startY 1262m
param *.uav[54].startZ 540m
param *.uav[55].startX 2185m
param *.uav[55].startY 3026m
param *.uav[55].startZ 778m
param *.uav[56].startX 3537m
param *.uav[56].startY 965m
param *.uav[56].startZ 539m
param *.uav[57].startX 312m
param *.uav[57].startY 1262m
param *.uav[57].startZ 540m
param *.uav[58].startX 2185m
param *.uav[58].startY 3026m
param *.uav[58].startZ 778m
param *.uav[59].startX 3537m
param *.uav[59].startY 965m
param *.uav[59].startZ 539m
param *.uav[60].startX 3537m
param *.uav[60].startY 965m
param *.uav[60].startZ 539m
param *.uav[61].startX 312m
param *.uav[61].startY 1262m
param *.uav[61].startZ 540m
param *.uav[62].startX 2185m
param *.uav[62].startY 3026m
param *.uav[62].startZ 778m
param *.uav[63].startX 3537m
param *.uav[63].startY 965m
param *.uav[63].startZ 539m
param *.uav[64].startX 312m
param *.uav[64].startY 1262m
param *.uav[64].startZ 540m
param *.uav[65].startX 2185m
param *.uav[65].startY 3026m
param *.uav[65].startZ 778m
param *.uav[66].startX 3537m
param *.uav[66].startY 965m
param *.uav[66].startZ 539m
param *.uav[67].startX 312m
param *.uav[67].startY 1262m
param *.uav[67].startZ 540m
param *.uav[68].startX 2185m
param *.uav[68].startY 3026m
param *.uav[68].startZ 778m
param *.uav[69].startX 3537m
param *.uav[69].startY 965m
param *.uav[69].startZ 539m
param *.uav[70].startX 3537m
param *.uav[70].startY 965m
param *.uav[70].startZ 539m
param *.uav[71].startX 312m
param *.uav[71].startY 1262m
param *.uav[71].startZ 540m
param *.uav[72].startX 2185m
param *.uav[72].startY 3026m
param *.uav[72].startZ 778m
param *.uav[73].startX 3537m
param *.uav[73].startY 965m
param *.uav[73].startZ 539m
param *.uav[74].startX 312m
param *.uav[74].startY 1262m
param *.uav[74].startZ 540m
param *.uav[75].startX 2185m
param *.uav[75].startY 3026m
param *.uav[75].startZ 778m
param *.uav[76].startX 3537m
param *.uav[76].startY 965m
param *.uav[76].startZ 539m
param *.uav[77].startX 312m
param *.uav[77].startY 1262m
param *.uav[77].startZ 540m
param *.uav[78].startX 2185m
param *.uav[78].startY 3026m
param *.uav[78].startZ 778m
param *.uav[79].startX 3537m
param *.uav[79].startY 965m
param *.uav[79].startZ 539m
param *.uav[80].startX 3537m
param *.uav[80].startY 965m
param *.uav[80].startZ 539m
param *.uav[81].startX 312m
param *.uav[81].startY 1262m
param *.uav[81].startZ 540m
param *.uav[82].startX 2185m
param *.uav[82].startY 3026m
param *.uav[82].startZ 778m
param *.uav[83].startX 3537m
param *.uav[83].startY 965m
param *.uav[83].startZ 539m
param *.uav[84].startX 312m
param *.uav[84].startY 1262m
param *.uav[84].startZ 540m
param *.uav[85].startX 2185m
param *.uav[85].startY 3026m
param *.uav[85].startZ 778m
param *.uav[86].startX 3537m
param *.uav[86].startY 965m
param *.uav[86].startZ 539m
param *.uav[87].startX 312m
param *.uav[87].startY 1262m
param *.uav[87].startZ 540m
param *.uav[88].startX 2185m
param *.uav[88].startY 3026m
param *.uav[88].startZ 778m
param *.uav[89].startX 3537m
param *.uav[89].startY 965m
param *.uav[89].startZ 539m
param *.uav[90].startX 3537m
param *.uav[90].startY 965m
param *.uav[90].startZ 539m
param *.uav[91].startX 312m
param *.uav[91].startY 1262m
param *.uav[91].startZ 540m
param *.uav[92].startX 2185m
param *.uav[92].startY 3026m
param *.uav[92].startZ 778m
param *.uav[93].startX 3537m
param *.uav[93].startY 965m
param *.uav[93].startZ 539m
param *.uav[94].startX 312m
param *.uav[94].startY 1262m
param *.uav[94].startZ 540m
param *.uav[95].startX 2185m
param *.uav[95].startY 3026m
param *.uav[95].startZ 778m
param *.uav[96].startX 3537m
param *.uav[96].startY 965m
param *.uav[96].startZ 539m
param *.uav[97].startX 312m
param *.uav[97].startY 1262m
param *.uav[97].startZ 540m
param *.uav[98].startX 2185m
param *.uav[98].startY 3026m
param *.uav[98].startZ 778m
param *.uav[99].startX 3537m
param *.uav[99].startY 965m
param *.uav[99].startZ 539m
param *.osgEarthScene.scene "\"boston.earth\""
param *.playgroundLatitude 42.3558
param *.playgroundLongitude -71.0677
param *.playgroundWidth 400m
param *.playgroundHeight 200m
param *.channelController.connectionColor "\"#0000FF40\""
param *.channelController.showConnections false
param *.uav[*].modelURL "\"quadrocopter.small.obj.15.scale.0,0,90.rot\""
param *.uav[*].labelColor "\"#FF7C00CC\""
param *.uav[*].label2Color "\"#FF7C00EE\""
param *.uav[*].batteryCapacity 5200mAh
param *.uav[*].batteryRemaining uav[index].batteryCapacity
param *.uav[*].predictionQuantile 0.95
param *.uav[*].replacementMethod 2
param *.uav[*].weightedSumWeight 0.5
param *.cs[*].modelURL "\"chargingstation_v1.osgt.2.scale.0,0,0.rot.0,0,-15e-1.trans\""
param *.cs[*].spotsWaiting 999
param *.cs[*].spotsCharging 999
param *.cs[*].chargeEffectivenessPercentage 100
param *.cs[*].nonLinearPhaseStartPercentage 85
param *.cs[*].chargeCurrent 6.0A
param *.cs[*].prioritizeFastCharge true
param *.missionControl.replacementSearchMethod 0
param *.*.timeStep 9s

scalar OsgEarthNet.uav[0] utilizationSecMission 702.04634144488
scalar OsgEarthNet.uav[0] utilizationSecMaintenance 399.3816277427
scalar OsgEarthNet.uav[0] utilizationSecCharge 3870
scalar OsgEarthNet.uav[0] utilizationSecIdle 254228.57103081
scalar OsgEarthNet.uav[0] utilizationEnergyMission 3234.0500640869
scalar OsgEarthNet.uav[0] utilizationEnergyMaintenance 1733.5036239624
scalar OsgEarthNet.uav[0] utilizationEnergyCharge 4967.5551757812
scalar OsgEarthNet.uav[0] utilizationEnergyOverdrawMission 0
scalar OsgEarthNet.uav[0] utilizationEnergyOverdrawMaintenance 0
scalar OsgEarthNet.uav[0] utilizationCountMissions 1
scalar OsgEarthNet.uav[0] utilizationCountManeuversMission 10
scalar OsgEarthNet.uav[0] utilizationCountManeuversMaintenance 2
scalar OsgEarthNet.uav[0] utilizationCountChargeState 1
scalar OsgEarthNet.uav[0] utilizationCountOverdrawnAfterMission 0
scalar OsgEarthNet.uav[0] utilizationCountIdleState 2
scalar OsgEarthNet.uav[0] utilizationFail 0
scalar OsgEarthNet.uav[0] simulationTime 259200
scalar OsgEarthNet.uav[1] utilizationSecMission 25895.723391234
scalar OsgEarthNet.uav[1] utilizationSecMaintenance 9333.8996813968
scalar OsgEarthNet.uav[1] utilizationSecCharge 127630
scalar OsgEarthNet.uav[1] utilizationSecIdle 96340.375927369
scalar OsgEarthNet.uav[1] utilizationEnergyMission 120618.402708
scalar OsgEarthNet.uav[1] utilizationEnergyMaintenance 43545.242271423
scalar OsgEarthNet.uav[1] utilizationEnergyCharge 160431.50048828
scalar OsgEarthNet.uav[1] utilizationEnergyOverdrawMission 0
scalar OsgEarthNet.uav[1] utilizationEnergyOverdrawMaintenance 0
scalar OsgEarthNet.uav[1] utilizationCountMissions 34
scalar OsgEarthNet.uav[1] utilizationCountManeuversMission 414
scalar OsgEarthNet.uav[1] utilizationCountManeuversMaintenance 69
scalar OsgEarthNet.uav[1] utilizationCountChargeState 34
scalar OsgEarthNet.uav[1] utilizationCountOverdrawnAfterMission 0
scalar OsgEarthNet.uav[1] utilizationCountIdleState 35
scalar OsgEarthNet.uav[1] utilizationFail 0
scalar OsgEarthNet.uav[1] simulationTime 259200
scalar OsgEarthNet.uav[2] utilizationSecMission 887.1741082606
scalar OsgEarthNet.uav[2] utilizationSecMaintenance 171.13387461676
scalar OsgEarthNet.uav[2] utilizationSecCharge 3920
scalar OsgEarthNet.uav[2] utilizationSecIdle 254221.69101712
scalar OsgEarthNet.uav[2] utilizationEnergyMission 3876.8167877197
scalar OsgEarthNet.uav[2] utilizationEnergyMaintenance 895.40953826904
scalar OsgEarthNet.uav[2] utilizationEnergyCharge 4954.59765625
scalar OsgEarthNet.uav[2] utilizationEnergyOverdrawMission 0
scalar OsgEarthNet.uav[2] utilizationEnergyOverdrawMaintenance 0
scalar OsgEarthNet.uav[2] utilizationCountMissions 1
scalar OsgEarthNet.uav[2] utilizationCountManeuversMission 14
scalar OsgEarthNet.uav[2] utilizationCountManeuversMaintenance 2
scalar OsgEarthNet.uav[2] utilizationCountChargeState 1
scalar OsgEarthNet.uav[2] utilizationCountOverdrawnAfterMission 0
scalar OsgEarthNet.uav[2] utilizationCountIdleState 2
scalar OsgEarthNet.uav[2] utilizationFail 0
scalar OsgEarthNet.uav[2] simulationTime 259200
scalar OsgEarthNet.uav[3] utilizationSecMission 670.50650402609
scalar OsgEarthNet.uav[3] utilizationSecMaintenance 362.30145289341
scalar OsgEarthNet.uav[3] utilizationSecCharge 3810
scalar OsgEarthNet.uav[3] utilizationSecIdle 254357.19104308
scalar OsgEarthNet.uav[3] utilizationEnergyMission 3293.1869659424
scalar OsgEarthNet.uav[3] utilizationEnergyMaintenance 1580.9772453308
scalar OsgEarthNet.uav[3] utilizationEnergyCharge 4874.1645507812
scalar OsgEarthNet.uav[3] utilizationEnergyOverdrawMission 0
scalar OsgEarthNet.uav[3] utilizationEnergyOverdrawMaintenance 0
scalar OsgEarthNet.uav[3] utilizationCountMissions 1
scalar OsgEarthNet.uav[3] utilizationCountManeuversMission 10
scalar OsgEarthNet.uav[3] utilizationCountManeuversMaintenance 2
scalar OsgEarthNet.uav[3] utilizationCountChargeState 1
scalar OsgEarthNet.uav[3] utilizationCountOverdrawnAfterMission 0
scalar OsgEarthNet.uav[3] utilizationCountIdleState 2
scalar OsgEarthNet.uav[3] utilizationFail 0
scalar OsgEarthNet.uav[3] simulationTime 259200
scalar OsgEarthNet.uav[4] utilizationSecMission 28014.038656382
scalar OsgEarthNet.uav[4] utilizationSecMaintenance 12282.122590904
scalar OsgEarthNet.uav[4] utilizationSecCharge 149516.32718876
scalar OsgEarthNet.uav[4] utilizationSecIdle 69387.510563952
scalar OsgEarthNet.uav[4] utilizationEnergyMission 129679.43521118
scalar OsgEarthNet.uav[4] utilizationEnergyMaintenance 58089.886764526
scalar OsgEarthNet.uav[4] utilizationEnergyCharge 187806.21289062
scalar OsgEarthNet.uav[4] utilizationEnergyOverdrawMission 0
scalar OsgEarthNet.uav[4] utilizationEnergyOverdrawMaintenance 0
scalar OsgEarthNet.uav[4] utilizationCountMissions 40
scalar OsgEarthNet.uav[4] utilizationCountManeuversMission 457
scalar OsgEarthNet.uav[4] utilizationCountManeuversMaintenance 80
scalar OsgEarthNet.uav[4] utilizationCountChargeState 40
scalar OsgEarthNet.uav[4] utilizationCountOverdrawnAfterMission 0
scalar OsgEarthNet.uav[4] utilizationCountIdleState 40
scalar OsgEarthNet.uav[4] utilizationFail 0
scalar OsgEarthNet.uav[4] simulationTime 259200
scalar OsgEarthNet.uav[5] utilizationSecMission 694.00169469977
scalar OsgEarthNet.uav[5] utilizationSecMaintenance 282.18572599206
scalar OsgEarthNet.uav[5] utilizationSecCharge 3630
scalar OsgEarthNet.uav[5] utilizationSecIdle 254593.81157931
scalar OsgEarthNet.uav[5] utilizationEnergyMission 3220.8871917725
scalar OsgEarthNet.uav[5] utilizationEnergyMaintenance 1266.5898666382
scalar OsgEarthNet.uav[5] utilizationEnergyCharge 4487.474609375
scalar OsgEarthNet.uav[5] utilizationEnergyOverdrawMission 0
scalar OsgEarthNet.uav[5] utilizationEnergyOverdrawMaintenance 0
scalar OsgEarthNet.uav[5] utilizationCountMissions 1
scalar OsgEarthNet.uav[5] utilizationCountManeuversMission 13
scalar OsgEarthNet.uav[5] utilizationCountManeuversMaintenance 2
scalar OsgEarthNet.uav[5] utilizationCountChargeState 1
scalar OsgEarthNet.uav[5] utilizationCountOverdrawnAfterMission 0
scalar OsgEarthNet.uav[5] utilizationCountIdleState 2
scalar OsgEarthNet.uav[5] utilizationFail 0
scalar OsgEarthNet.uav[5] simulationTime 259200
scalar OsgEarthNet.uav[6] utilizationSecMission 684.4732299383
scalar OsgEarthNet.uav[6] utilizationSecMaintenance 298.56834692969
scalar OsgEarthNet.uav[6] utilizationSecCharge 3680
scalar OsgEarthNet.uav[6] utilizationSecIdle 254536.95742313
scalar OsgEarthNet.uav[6] utilizationEnergyMission 3266.7828521729
scalar OsgEarthNet.uav[6] utilizationEnergyMaintenance 1389.4758834839
scalar OsgEarthNet.uav[6] utilizationEnergyCharge 4656.2553710938
scalar OsgEarthNet.uav[6] utilizationEnergyOverdrawMission 0
scalar OsgEarthNet.uav[6] utilizationEnergyOverdrawMaintenance 0
scalar OsgEarthNet.uav[6] utilizationCountMissions 1
scalar OsgEarthNet.uav[6] utilizationCountManeuversMission 11
scalar OsgEarthNet.uav[6] utilizationCountManeuversMaintenance 2
scalar OsgEarthNet.uav[6] utilizationCountChargeState 1
scalar OsgEarthNet.uav[6] utilizationCountOverdrawnAfterMission 0
scalar OsgEarthNet.uav[6] utilizationCountIdleState 2
scalar OsgEarthNet.uav[6] utilizationFail 0
scalar OsgEarthNet.uav[6] simulationTime 259200
scalar OsgEarthNet.uav[7] utilizationSecMission 27080.999465878
scalar OsgEarthNet.uav[7] utilizationSecMaintenance 13339.678386527
scalar OsgEarthNet.uav[7] utilizationSecCharge 151920
scalar OsgEarthNet.uav[7] utilizationSecIdle 66859.321147594
scalar OsgEarthNet.uav[7] utilizationEnergyMission 125383.15322113
scalar OsgEarthNet.uav[7] utilizationEnergyMaintenance 64436.067115784
scalar OsgEarthNet.uav[7] utilizationEnergyCharge 190017.58178711
scalar OsgEarthNet.uav[7] utilizationEnergyOverdrawMission 0
scalar OsgEarthNet.uav[7] utilizationEnergyOverdrawMaintenance 0
scalar OsgEarthNet.uav[7] utilizationCountMissions 41
scalar OsgEarthNet.uav[7] utilizationCountManeuversMission 447
scalar OsgEarthNet.uav[7] utilizationCountManeuversMaintenance 82
scalar OsgEarthNet.uav[7] utilizationCountChargeState 41
scalar OsgEarthNet.uav[7] utilizationCountOverdrawnAfterMission 0
scalar OsgEarthNet.uav[7] utilizationCountIdleState 42
scalar OsgEarthNet.uav[7] utilizationFail 0
scalar OsgEarthNet.uav[7] simulationTime 259200
scalar OsgEarthNet.uav[8] utilizationSecMission 28343.209910581
scalar OsgEarthNet.uav[8] utilizationSecMaintenance 14193.47799944
scalar OsgEarthNet.uav[8] utilizationSecCharge 157356.96086916
scalar OsgEarthNet.uav[8] utilizationSecIdle 59306.350220821
scalar OsgEarthNet.uav[8] utilizationEnergyMission 131776.18802643
scalar OsgEarthNet.uav[8] utilizationEnergyMaintenance 66196.45042038
scalar OsgEarthNet.uav[8] utilizationEnergyCharge 197788.71289062
scalar OsgEarthNet.uav[8] utilizationEnergyOverdrawMission 0
scalar OsgEarthNet.uav[8] utilizationEnergyOverdrawMaintenance 0
scalar OsgEarthNet.uav[8] utilizationCountMissions 42
scalar OsgEarthNet.uav[8] utilizationCountManeuversMission 452
scalar OsgEarthNet.uav[8] utilizationCountManeuversMaintenance 84
scalar OsgEarthNet.uav[8] utilizationCountChargeState 42
scalar OsgEarthNet.uav[8] utilizationCountOverdrawnAfterMission 0
scalar OsgEarthNet.uav[8] utilizationCountIdleState 42
scalar OsgEarthNet.uav[8] utilizationFail 0
scalar OsgEarthNet.uav[8] simulationTime 259200
scalar OsgEarthNet.uav[9] utilizationSecMission 581.19640448947
scalar OsgEarthNet.uav[9] utilizationSecMaintenance 393.71026136566
scalar OsgEarthNet.uav[9] utilizationSecCharge 3650
scalar OsgEarthNet.uav[9] utilizationSecIdle 254575.09233414
scalar OsgEarthNet.uav[9] utilizationEnergyMission 2848.3719787598
scalar OsgEarthNet.uav[9] utilizationEnergyMaintenance 1716.6543807983
scalar OsgEarthNet.uav[9] utilizationEnergyCharge 4571.3208007812
scalar OsgEarthNet.uav[9] utilizationEnergyOverdrawMission 0
scalar OsgEarthNet.uav[9] utilizationEnergyOverdrawMaintenance 0
scalar OsgEarthNet.uav[9] utilizationCountMissions 1
scalar OsgEarthNet.uav[9] utilizationCountManeuversMission 9
scalar OsgEarthNet.uav[9] utilizationCountManeuversMaintenance 2
scalar OsgEarthNet.uav[9] utilizationCountChargeState 1
scalar OsgEarthNet.uav[9] utilizationCountOverdrawnAfterMission 0
scalar OsgEarthNet.uav[9] utilizationCountIdleState 2
scalar OsgEarthNet.uav[9] utilizationFail 0
scalar OsgEarthNet.uav[9] simulationTime 259200
scalar OsgEarthNet.uav[10] utilizationSecMission 24745.264442332
scalar OsgEarthNet.uav[10] utilizationSecMaintenance 9670.3218325144
scalar OsgEarthNet.uav[10] utilizationSecCharge 124473.84329566
scalar OsgEarthNet.uav[10] utilizationSecIdle 100310.56942949
scalar OsgEarthNet.uav[10] utilizationEnergyMission 114517.29174423
scalar OsgEarthNet.uav[10] utilizationEnergyMaintenance 44513.803581238
scalar OsgEarthNet.uav[10] utilizationEnergyCharge 156627.56494141
scalar OsgEarthNet.uav[10] utilizationEnergyOverdrawMission 0
scalar OsgEarthNet.uav[10] utilizationEnergyOverdrawMaintenance 0
scalar OsgEarthNet.uav[10] utilizationCountMissions 34
scalar OsgEarthNet.uav[10] utilizationCountManeuversMission 397
scalar OsgEarthNet.uav[10] utilizationCountManeuversMaintenance 68
scalar OsgEarthNet.uav[10] utilizationCountChargeState 34
scalar OsgEarthNet.uav[10] utilizationCountOverdrawnAfterMission 0
scalar OsgEarthNet.uav[10] utilizationCountIdleState 34
scalar OsgEarthNet.uav[10] utilizationFail 0
scalar OsgEarthNet.uav[10] simulationTime 259200
scalar OsgEarthNet.uav[11] utilizationSecMission 27481.061308936
scalar OsgEarthNet.uav[11] utilizationSecMaintenance 14199.217420477
scalar OsgEarthNet.uav[11] utilizationSecCharge 153461.19081417
scalar OsgEarthNet.uav[11] utilizationSecIdle 64058.529456417
scalar OsgEarthNet.uav[11] utilizationEnergyMission 127784.16674042
scalar OsgEarthNet.uav[11] utilizationEnergyMaintenance 66546.604312897
scalar OsgEarthNet.uav[11] utilizationEnergyCharge 192549.95849609
scalar OsgEarthNet.uav[11] utilizationEnergyOverdrawMission 0
scalar OsgEarthNet.uav[11] utilizationEnergyOverdrawMaintenance 0
scalar OsgEarthNet.uav[11] utilizationCountMissions 42
scalar OsgEarthNet.uav[11] utilizationCountManeuversMission 453
scalar OsgEarthNet.uav[11] utilizationCountManeuversMaintenance 84
scalar OsgEarthNet.uav[11] utilizationCountChargeState 42
scalar OsgEarthNet.uav[11] utilizationCountOverdrawnAfterMission 0
scalar OsgEarthNet.uav[11] utilizationCountIdleState 42
scalar OsgEarthNet.uav[11] utilizationFail 0
scalar OsgEarthNet.uav[11] simulationTime 259200
scalar OsgEarthNet.uav[12] utilizationSecMission 29474.610025901
scalar OsgEarthNet.uav[12] utilizationSecMaintenance 14158.941401627
scalar OsgEarthNet.uav[12] utilizationSecCharge 159470
scalar OsgEarthNet.uav[12] utilizationSecIdle 56096.447572472
scalar OsgEarthNet.uav[12] utilizationEnergyMission 135421.95119955
scalar OsgEarthNet.uav[12] utilizationEnergyMaintenance 65658.02853775
scalar OsgEarthNet.uav[12] utilizationEnergyCharge 199341.61181641
scalar OsgEarthNet.uav[12] utilizationEnergyOverdrawMission 0
scalar OsgEarthNet.uav[12] utilizationEnergyOverdrawMaintenance 0
scalar OsgEarthNet.uav[12] utilizationCountMissions 43
scalar OsgEarthNet.uav[12] utilizationCountManeuversMission 473
scalar OsgEarthNet.uav[12] utilizationCountManeuversMaintenance 87
scalar OsgEarthNet.uav[12] utilizationCountChargeState 43
scalar OsgEarthNet.uav[12] utilizationCountOverdrawnAfterMission 0
scalar OsgEarthNet.uav[12] utilizationCountIdleState 44
scalar OsgEarthNet.uav[12] utilizationFail 0
scalar OsgEarthNet.uav[12] simulationTime 259200
scalar OsgEarthNet.uav[13] utilizationSecMission 684.4732299383
scalar OsgEarthNet.uav[13] utilizationSecMaintenance 298.56834692969
scalar OsgEarthNet.uav[13] utilizationSecCharge 3790
scalar OsgEarthNet.uav[13] utilizationSecIdle 254426.95742313
scalar OsgEarthNet.uav[13] utilizationEnergyMission 3402.9526367188
scalar OsgEarthNet.uav[13] utilizationEnergyMaintenance 1421.9359664917
scalar OsgEarthNet.uav[13] utilizationEnergyCharge 4824.8842773438
scalar OsgEarthNet.uav[13] utilizationEnergyOverdrawMission 0
scalar OsgEarthNet.uav[13] utilizationEnergyOverdrawMaintenance 0
scalar OsgEarthNet.uav[13] utilizationCountMissions 1
scalar OsgEarthNet.uav[13] utilizationCountManeuversMission 11
scalar OsgEarthNet.uav[13] utilizationCountManeuversMaintenance 2
scalar OsgEarthNet.uav[13] utilizationCountChargeState 1
scalar OsgEarthNet.uav[13] utilizationCountOverdrawnAfterMission 0
scalar OsgEarthNet.uav[13] utilizationCountIdleState 2
scalar OsgEarthNet.uav[13] utilizationFail 0
scalar OsgEarthNet.uav[13] simulationTime 259200
scalar OsgEarthNet.uav[14] utilizationSecMission 1847.7151178476
scalar OsgEarthNet.uav[14] utilizationSecMaintenance 1196.724222153
scalar OsgEarthNet.uav[14] utilizationSecCharge 11330
scalar OsgEarthNet.uav[14] utilizationSecIdle 244825.55966
scalar OsgEarthNet.uav[14] utilizationEnergyMission 8427.0559692383
scalar OsgEarthNet.uav[14] utilizationEnergyMaintenance 5803.9648895264
scalar OsgEarthNet.uav[14] utilizationEnergyCharge 14231.021484375
scalar OsgEarthNet.uav[14] utilizationEnergyOverdrawMission 0
scalar OsgEarthNet.uav[14] utilizationEnergyOverdrawMaintenance 0
scalar OsgEarthNet.uav[14] utilizationCountMissions 3
scalar OsgEarthNet.uav[14] utilizationCountManeuversMission 29
scalar OsgEarthNet.uav[14] utilizationCountManeuversMaintenance 6
scalar OsgEarthNet.uav[14] utilizationCountChargeState 3
scalar OsgEarthNet.uav[14] utilizationCountOverdrawnAfterMission 0
scalar OsgEarthNet.uav[14] utilizationCountIdleState 4
scalar OsgEarthNet.uav[14] utilizationFail 0
scalar OsgEarthNet.uav[14] simulationTime 259200
scalar OsgEarthNet.uav[15] utilizationSecMission 694.00169469977
scalar OsgEarthNet.uav[15] utilizationSecMaintenance 282.18572599206
scalar OsgEarthNet.uav[15] utilizationSecCharge 3830
scalar OsgEarthNet.uav[15] utilizationSecIdle 254393.81157931
scalar OsgEarthNet.uav[15] utilizationEnergyMission 3495.4866943359
scalar OsgEarthNet.uav[15] utilizationEnergyMaintenance 1304.9942245483
scalar OsgEarthNet.uav[15] utilizationEnergyCharge 4800.4790039062
scalar OsgEarthNet.uav[15] utilizationEnergyOverdrawMission 0
scalar OsgEarthNet.uav[15] utilizationEnergyOverdrawMaintenance 0
scalar OsgEarthNet.uav[15] utilizationCountMissions 1
scalar OsgEarthNet.uav[15] utilizationCountManeuversMission 13
scalar OsgEarthNet.uav[15] utilizationCountManeuversMaintenance 2
scalar OsgEarthNet.uav[15] utilizationCountChargeState 1
scalar OsgEarthNet.uav[15] utilizationCountOverdrawnAfterMission 0
scalar OsgEarthNet.uav[15] utilizationCountIdleState 2
scalar OsgEarthNet.uav[15] utilizationFail 0
scalar OsgEarthNet.uav[15] simulationTime 259200
scalar OsgEarthNet.uav[16] utilizationSecMission 836.77707522227
scalar OsgEarthNet.uav[16] utilizationSecMaintenance 217.0347828456
scalar OsgEarthNet.uav[16] utilizationSecCharge 3760
scalar OsgEarthNet.uav[16] utilizationSecIdle 254386.18714193
scalar OsgEarthNet.uav[16] utilizationEnergyMission 3792.3793334961
scalar OsgEarthNet.uav[16] utilizationEnergyMaintenance 987.6014213562
scalar OsgEarthNet.uav[16] utilizationEnergyCharge 4779.9799804688
scalar OsgEarthNet.uav[16] utilizationEnergyOverdrawMission 0
scalar OsgEarthNet.uav[16] utilizationEnergyOverdrawMaintenance 0
scalar OsgEarthNet.uav[16] utilizationCountMissions 1
scalar OsgEarthNet.uav[16] utilizationCountManeuversMission 13
scalar OsgEarthNet.uav[16] utilizationCountManeuversMaintenance 2
scalar OsgEarthNet.uav[16] utilizationCountChargeState 1
scalar OsgEarthNet.uav[16] utilizationCountOverdrawnAfterMission 0
scalar OsgEarthNet.uav[16] utilizationCountIdleState 2
scalar OsgEarthNet.uav[16] utilizationFail 0
scalar OsgEarthNet.uav[16] simulationTime 259200
scalar OsgEarthNet.uav[17] utilizationSecMission 26580.746898261
scalar OsgEarthNet.uav[17] utilizationSecMaintenance 10536.809345816
scalar OsgEarthNet.uav[17] utilizationSecCharge 134826.07336141
scalar OsgEarthNet.uav[17] utilizationSecIdle 87256.369394516
scalar OsgEarthNet.uav[17] utilizationEnergyMission 123567.59635925
scalar OsgEarthNet.uav[17] utilizationEnergyMaintenance 49791.661277771
scalar OsgEarthNet.uav[17] utilizationEnergyCharge 169186.83526611
scalar OsgEarthNet.uav[17] utilizationEnergyOverdrawMission 0
scalar OsgEarthNet.uav[17] utilizationEnergyOverdrawMaintenance 0
scalar OsgEarthNet.uav[17] utilizationCountMissions 37
scalar OsgEarthNet.uav[17] utilizationCountManeuversMission 440
scalar OsgEarthNet.uav[17] utilizationCountManeuversMaintenance 74
scalar OsgEarthNet.uav[17] utilizationCountChargeState 37
scalar OsgEarthNet.uav[17] utilizationCountOverdrawnAfterMission 0
scalar OsgEarthNet.uav[17] utilizationCountIdleState 37
scalar OsgEarthNet.uav[17] utilizationFail 0
scalar OsgEarthNet.uav[17] simulationTime 259200
scalar OsgEarthNet.uav[18] utilizationSecMission 2468.569068483
scalar OsgEarthNet.uav[18] utilizationSecMaintenance 1622.1593887735
scalar OsgEarthNet.uav[18] utilizationSecCharge 14860
scalar OsgEarthNet.uav[18] utilizationSecIdle 240249.27054274
scalar OsgEarthNet.uav[18] utilizationEnergyMission 11306.896453857
scalar OsgEarthNet.uav[18] utilizationEnergyMaintenance 7341.1076202393
scalar OsgEarthNet.uav[18] utilizationEnergyCharge 18648.001953125
scalar OsgEarthNet.uav[18] utilizationEnergyOverdrawMission 0
scalar OsgEarthNet.uav[18] utilizationEnergyOverdrawMaintenance 0
scalar OsgEarthNet.uav[18] utilizationCountMissions 4
scalar OsgEarthNet.uav[18] utilizationCountManeuversMission 40
scalar OsgEarthNet.uav[18] utilizationCountManeuversMaintenance 8
scalar OsgEarthNet.uav[18] utilizationCountChargeState 4
scalar OsgEarthNet.uav[18] utilizationCountOverdrawnAfterMission 0
scalar OsgEarthNet.uav[18] utilizationCountIdleState 5
scalar OsgEarthNet.uav[18] utilizationFail 0
scalar OsgEarthNet.uav[18] simulationTime 259200
scalar OsgEarthNet.uav[19] utilizationSecMission 836.77707522227
scalar OsgEarthNet.uav[19] utilizationSecMaintenance 217.0347828456
scalar OsgEarthNet.uav[19] utilizationSecCharge 3840
scalar OsgEarthNet.uav[19] utilizationSecIdle 254306.18714193
scalar OsgEarthNet.uav[19] utilizationEnergyMission 3770.5260009766
scalar OsgEarthNet.uav[19] utilizationEnergyMaintenance 1122.985118866
scalar OsgEarthNet.uav[19] utilizationEnergyCharge 4893.5131835938
scalar OsgEarthNet.uav[19] utilizationEnergyOverdrawMission 0
scalar OsgEarthNet.uav[19] utilizationEnergyOverdrawMaintenance 0
scalar OsgEarthNet.uav[19] utilizationCountMissions 1
scalar OsgEarthNet.uav[19] utilizationCountManeuversMission 13
scalar OsgEarthNet.uav[19] utilizationCountManeuversMaintenance 2
scalar OsgEarthNet.uav[19] utilizationCountChargeState 1
scalar OsgEarthNet.uav[19] utilizationCountOverdrawnAfterMission 0
scalar OsgEarthNet.uav[19] utilizationCountIdleState 2
scalar OsgEarthNet.uav[19] utilizationFail 0
scalar OsgEarthNet.uav[19] simulationTime 259200
scalar OsgEarthNet.uav[20] utilizationSecMission 702.6942798579
scalar OsgEarthNet.uav[20] utilizationSecMaintenance 282.29565405678
scalar OsgEarthNet.uav[20] utilizationSecCharge 3640
scalar OsgEarthNet.uav[20] utilizationSecIdle 254575.00906609
scalar OsgEarthNet.uav[20] utilizationEnergyMission 3143.216217041
scalar OsgEarthNet.uav[20] utilizationEnergyMaintenance 1428.4557304382
scalar OsgEarthNet.uav[20] utilizationEnergyCharge 4571.6684570312
scalar OsgEarthNet.uav[20] utilizationEnergyOverdrawMission 0
scalar OsgEarthNet.uav[20] utilizationEnergyOverdrawMaintenance 0
scalar OsgEarthNet.uav[20] utilizationCountMissions 1
scalar OsgEarthNet.uav[20] utilizationCountManeuversMission 10
scalar OsgEarthNet.uav[20] utilizationCountManeuversMaintenance 2
scalar OsgEarthNet.uav[20] utilizationCountChargeState 1
scalar OsgEarthNet.uav[20] utilizationCountOverdrawnAfterMission 0
scalar OsgEarthNet.uav[20] utilizationCountIdleState 2
scalar OsgEarthNet.uav[20] utilizationFail 0
scalar OsgEarthNet.uav[20] simulationTime 259200
scalar OsgEarthNet.uav[21] utilizationSecMission 29354.14999264
scalar OsgEarthNet.uav[21] utilizationSecMaintenance 14765.011684038
scalar OsgEarthNet.uav[21] utilizationSecCharge 162108.80782734
scalar OsgEarthNet.uav[21] utilizationSecIdle 52972.02949598
scalar OsgEarthNet.uav[21] utilizationEnergyMission 135969.14646149
scalar OsgEarthNet.uav[21] utilizationEnergyMaintenance 69227.234096527
scalar OsgEarthNet.uav[21] utilizationEnergyCharge 204170.42285156
scalar OsgEarthNet.uav[21] utilizationEnergyOverdrawMission 0
scalar OsgEarthNet.uav[21] utilizationEnergyOverdrawMaintenance 0
scalar OsgEarthNet.uav[21] utilizationCountMissions 44
scalar OsgEarthNet.uav[21] utilizationCountManeuversMission 496
scalar OsgEarthNet.uav[21] utilizationCountManeuversMaintenance 88
scalar OsgEarthNet.uav[21] utilizationCountChargeState 44
scalar OsgEarthNet.uav[21] utilizationCountOverdrawnAfterMission 0
scalar OsgEarthNet.uav[21] utilizationCountIdleState 44
scalar OsgEarthNet.uav[21] utilizationFail 0
scalar OsgEarthNet.uav[21] simulationTime 259200
scalar OsgEarthNet.uav[22] utilizationSecMission 946.1545473523
scalar OsgEarthNet.uav[22] utilizationSecMaintenance 162.42799022119
scalar OsgEarthNet.uav[22] utilizationSecCharge 3800
scalar OsgEarthNet.uav[22] utilizationSecIdle 254291.41646243
scalar OsgEarthNet.uav[22] utilizationEnergyMission 3969.9281158447
scalar OsgEarthNet.uav[22] utilizationEnergyMaintenance 656.30623626709
scalar OsgEarthNet.uav[22] utilizationEnergyCharge 4734.8588867188
scalar OsgEarthNet.uav[22] utilizationEnergyOverdrawMission 0
scalar OsgEarthNet.uav[22] utilizationEnergyOverdrawMaintenance 0
scalar OsgEarthNet.uav[22] utilizationCountMissions 1
scalar OsgEarthNet.uav[22] utilizationCountManeuversMission 15
scalar OsgEarthNet.uav[22] utilizationCountManeuversMaintenance 2
scalar OsgEarthNet.uav[22] utilizationCountChargeState 1
scalar OsgEarthNet.uav[22] utilizationCountOverdrawnAfterMission 0
scalar OsgEarthNet.uav[22] utilizationCountIdleState 2
scalar OsgEarthNet.uav[22] utilizationFail 0
scalar OsgEarthNet.uav[22] simulationTime 259200
scalar OsgEarthNet.uav[23] utilizationSecMission 760.62515258028
scalar OsgEarthNet.uav[23] utilizationSecMaintenance 291.95923480269
scalar OsgEarthNet.uav[23] utilizationSecCharge 3840
scalar OsgEarthNet.uav[23] utilizationSecIdle 254307.41461262
scalar OsgEarthNet.uav[23] utilizationEnergyMission 3401.5144195557
scalar OsgEarthNet.uav[23] utilizationEnergyMaintenance 1463.1758651733
scalar OsgEarthNet.uav[23] utilizationEnergyCharge 4864.6928710938
scalar OsgEarthNet.uav[23] utilizationEnergyOverdrawMission 0
scalar OsgEarthNet.uav[23] utilizationEnergyOverdrawMaintenance 0
scalar OsgEarthNet.uav[23] utilizationCountMissions 1
scalar OsgEarthNet.uav[23] utilizationCountManeuversMission 12
scalar OsgEarthNet.uav[23] utilizationCountManeuversMaintenance 2
scalar OsgEarthNet.uav[23] utilizationCountChargeState 1
scalar OsgEarthNet.uav[23] utilizationCountOverdrawnAfterMission 0
scalar OsgEarthNet.uav[23] utilizationCountIdleState 2
scalar OsgEarthNet.uav[23] utilizationFail 0
scalar OsgEarthNet.uav[23] simulationTime 259200
scalar OsgEarthNet.uav[24] utilizationSecMission 4493.7353146333
scalar OsgEarthNet.uav[24] utilizationSecMaintenance 2516.4008062888
scalar OsgEarthNet.uav[24] utilizationSecCharge 26190
scalar OsgEarthNet.uav[24] utilizationSecIdle 225999.86287908
scalar OsgEarthNet.uav[24] utilizationEnergyMission 20864.377876282
scalar OsgEarthNet.uav[24] utilizationEnergyMaintenance 12076.691822052
scalar OsgEarthNet.uav[24] utilizationEnergyCharge 32941.067382812
scalar OsgEarthNet.uav[24] utilizationEnergyOverdrawMission 0
scalar OsgEarthNet.uav[24] utilizationEnergyOverdrawMaintenance 0
scalar OsgEarthNet.uav[24] utilizationCountMissions 7
scalar OsgEarthNet.uav[24] utilizationCountManeuversMission 77
scalar OsgEarthNet.uav[24] utilizationCountManeuversMaintenance 14
scalar OsgEarthNet.uav[24] utilizationCountChargeState 7
scalar OsgEarthNet.uav[24] utilizationCountOverdrawnAfterMission 0
scalar OsgEarthNet.uav[24] utilizationCountIdleState 8
scalar OsgEarthNet.uav[24] utilizationFail 0
scalar OsgEarthNet.uav[24] simulationTime 259200
scalar OsgEarthNet.uav[25] utilizationSecMission 25577.207798669
scalar OsgEarthNet.uav[25] utilizationSecMaintenance 13806.141035376
scalar OsgEarthNet.uav[25] utilizationSecCharge 143349.94480033
scalar OsgEarthNet.uav[25] utilizationSecIdle 76466.70536562
scalar OsgEarthNet.uav[25] utilizationEnergyMission 118803.07603455
scalar OsgEarthNet.uav[25] utilizationEnergyMaintenance 64069.557449341
scalar OsgEarthNet.uav[25] utilizationEnergyCharge 180628.10253906
scalar OsgEarthNet.uav[25] utilizationEnergyOverdrawMission 0
scalar OsgEarthNet.uav[25] utilizationEnergyOverdrawMaintenance 0
scalar OsgEarthNet.uav[25] utilizationCountMissions 39
scalar OsgEarthNet.uav[25] utilizationCountManeuversMission 442
scalar OsgEarthNet.uav[25] utilizationCountManeuversMaintenance 78
scalar OsgEarthNet.uav[25] utilizationCountChargeState 39
scalar OsgEarthNet.uav[25] utilizationCountOverdrawnAfterMission 0
scalar OsgEarthNet.uav[25] utilizationCountIdleState 39
scalar OsgEarthNet.uav[25] utilizationFail 0
scalar OsgEarthNet.uav[25] simulationTime 259200
scalar OsgEarthNet.uav[26] utilizationSecMission 760.62515258028
scalar OsgEarthNet.uav[26] utilizationSecMaintenance 291.95923480269
scalar OsgEarthNet.uav[26] utilizationSecCharge 3860
scalar OsgEarthNet.uav[26] utilizationSecIdle 254287.41461262
scalar OsgEarthNet.uav[26] utilizationEnergyMission 3522.7860870361
scalar OsgEarthNet.uav[26] utilizationEnergyMaintenance 1349.0481796265
scalar OsgEarthNet.uav[26] utilizationEnergyCharge 4871.8349609375
scalar OsgEarthNet.uav[26] utilizationEnergyOverdrawMission 0
scalar OsgEarthNet.uav[26] utilizationEnergyOverdrawMaintenance 0
scalar OsgEarthNet.uav[26] utilizationCountMissions 1
scalar OsgEarthNet.uav[26] utilizationCountManeuversMission 12
scalar OsgEarthNet.uav[26] utilizationCountManeuversMaintenance 2
scalar OsgEarthNet.uav[26] utilizationCountChargeState 1
scalar OsgEarthNet.uav[26] utilizationCountOverdrawnAfterMission 0
scalar OsgEarthNet.uav[26] utilizationCountIdleState 2
scalar OsgEarthNet.uav[26] utilizationFail 0
scalar OsgEarthNet.uav[26] simulationTime 259200
scalar OsgEarthNet.uav[27] utilizationSecMission 26670.955650238
scalar OsgEarthNet.uav[27] utilizationSecMaintenance 12915.980300387
scalar OsgEarthNet.uav[27] utilizationSecCharge 144585.8343803
scalar OsgEarthNet.uav[27] utilizationSecIdle 75027.228669076
scalar OsgEarthNet.uav[27] utilizationEnergyMission 122768.75267792
scalar OsgEarthNet.uav[27] utilizationEnergyMaintenance 60896.624313354
scalar OsgEarthNet.uav[27] utilizationEnergyCharge 182438.27197266
scalar OsgEarthNet.uav[27] utilizationEnergyOverdrawMission 0
scalar OsgEarthNet.uav[27] utilizationEnergyOverdrawMaintenance 0
scalar OsgEarthNet.uav[27] utilizationCountMissions 39
scalar OsgEarthNet.uav[27] utilizationCountManeuversMission 442
scalar OsgEarthNet.uav[27] utilizationCountManeuversMaintenance 78
scalar OsgEarthNet.uav[27] utilizationCountChargeState 39
scalar OsgEarthNet.uav[27] utilizationCountOverdrawnAfterMission 0
scalar OsgEarthNet.uav[27] utilizationCountIdleState 39
scalar OsgEarthNet.uav[27] utilizationFail 0
scalar OsgEarthNet.uav[27] simulationTime 259200
scalar OsgEarthNet.uav[28] utilizationSecMission 887.1741082606
scalar OsgEarthNet.uav[28] utilizationSecMaintenance 171.13387461676
scalar OsgEarthNet.uav[28] utilizationSecCharge 3780
scalar OsgEarthNet.uav[28] utilizationSecIdle 254361.69101712
scalar OsgEarthNet.uav[28] utilizationEnergyMission 4092.1671905517
scalar OsgEarthNet.uav[28] utilizationEnergyMaintenance 684.91674041748
scalar OsgEarthNet.uav[28] utilizationEnergyCharge 4711.7666015625
scalar OsgEarthNet.uav[28] utilizationEnergyOverdrawMission 0
scalar OsgEarthNet.uav[28] utilizationEnergyOverdrawMaintenance 0
scalar OsgEarthNet.uav[28] utilizationCountMissions 1
scalar OsgEarthNet.uav[28] utilizationCountManeuversMission 14
scalar OsgEarthNet.uav[28] utilizationCountManeuversMaintenance 2
scalar OsgEarthNet.uav[28] utilizationCountChargeState 1
scalar OsgEarthNet.uav[28] utilizationCountOverdrawnAfterMission 0
scalar OsgEarthNet.uav[28] utilizationCountIdleState 2
scalar OsgEarthNet.uav[28] utilizationFail 0
scalar OsgEarthNet.uav[28] simulationTime 259200
scalar OsgEarthNet.uav[29] utilizationSecMission 836.77707522227
scalar OsgEarthNet.uav[29] utilizationSecMaintenance 217.0347828456
scalar OsgEarthNet.uav[29] utilizationSecCharge 3770
scalar OsgEarthNet.uav[29] utilizationSecIdle 254376.18714193
scalar OsgEarthNet.uav[29] utilizationEnergyMission 3788.9794158936
scalar OsgEarthNet.uav[29] utilizationEnergyMaintenance 998.00089645386
scalar OsgEarthNet.uav[29] utilizationEnergyCharge 4786.9760742188
scalar OsgEarthNet.uav[29] utilizationEnergyOverdrawMission 0
scalar OsgEarthNet.uav[29] utilizationEnergyOverdrawMaintenance 0
scalar OsgEarthNet.uav[29] utilizationCountMissions 1
scalar OsgEarthNet.uav[29] utilizationCountManeuversMission 13
scalar OsgEarthNet.uav[29] utilizationCountManeuversMaintenance 2
scalar OsgEarthNet.uav[29] utilizationCountChargeState 1
scalar OsgEarthNet.uav[29] utilizationCountOverdrawnAfterMission 0
scalar OsgEarthNet.uav[29] utilizationCountIdleState 2
scalar OsgEarthNet.uav[29] utilizationFail 0
scalar OsgEarthNet.uav[29] simulationTime 259200
scalar OsgEarthNet.uav[30] utilizationSecMission 623.68863475643
scalar OsgEarthNet.uav[30] utilizationSecMaintenance 394.94199877579
scalar OsgEarthNet.uav[30] utilizationSecCharge 3720
scalar OsgEarthNet.uav[30] utilizationSecIdle 254461.36836647
scalar OsgEarthNet.uav[30] utilizationEnergyMission 2956.1026306152
scalar OsgEarthNet.uav[30] utilizationEnergyMaintenance 1779.4930038452
scalar OsgEarthNet.uav[30] utilizationEnergyCharge 4658.359375
scalar OsgEarthNet.uav[30] utilizationEnergyOverdrawMission 0
scalar OsgEarthNet.uav[30] utilizationEnergyOverdrawMaintenance 0
scalar OsgEarthNet.uav[30] utilizationCountMissions 1
scalar OsgEarthNet.uav[30] utilizationCountManeuversMission 10
scalar OsgEarthNet.uav[30] utilizationCountManeuversMaintenance 2
scalar OsgEarthNet.uav[30] utilizationCountChargeState 1
scalar OsgEarthNet.uav[30] utilizationCountOverdrawnAfterMission 0
scalar OsgEarthNet.uav[30] utilizationCountIdleState 2
scalar OsgEarthNet.uav[30] utilizationFail 0
scalar OsgEarthNet.uav[30] simulationTime 259200
scalar OsgEarthNet.uav[31] utilizationSecMission 32870.853989291
scalar OsgEarthNet.uav[31] utilizationSecMaintenance 12612.64436551
scalar OsgEarthNet.uav[31] utilizationSecCharge 166960
scalar OsgEarthNet.uav[31] utilizationSecIdle 46756.500645199
scalar OsgEarthNet.uav[31] utilizationEnergyMission 151501.6962204
scalar OsgEarthNet.uav[31] utilizationEnergyMaintenance 58588.679801941
scalar OsgEarthNet.uav[31] utilizationEnergyCharge 209012.51025391
scalar OsgEarthNet.uav[31] utilizationEnergyOverdrawMission 0
scalar OsgEarthNet.uav[31] utilizationEnergyOverdrawMaintenance 0
scalar OsgEarthNet.uav[31] utilizationCountMissions 45
scalar OsgEarthNet.uav[31] utilizationCountManeuversMission 521
scalar OsgEarthNet.uav[31] utilizationCountManeuversMaintenance 90
scalar OsgEarthNet.uav[31] utilizationCountChargeState 45
scalar OsgEarthNet.uav[31] utilizationCountOverdrawnAfterMission 0
scalar OsgEarthNet.uav[31] utilizationCountIdleState 46
scalar OsgEarthNet.uav[31] utilizationFail 0
scalar OsgEarthNet.uav[31] simulationTime 259200
scalar OsgEarthNet.uav[32] utilizationSecMission 27427.422885672
scalar OsgEarthNet.uav[32] utilizationSecMaintenance 14186.69073383
scalar OsgEarthNet.uav[32] utilizationSecCharge 152104.43241856
scalar OsgEarthNet.uav[32] utilizationSecIdle 65481.452961934
scalar OsgEarthNet.uav[32] utilizationEnergyMission 127026.91506958
scalar OsgEarthNet.uav[32] utilizationEnergyMaintenance 65654.014900208
scalar OsgEarthNet.uav[32] utilizationEnergyCharge 192108.45898438
scalar OsgEarthNet.uav[32] utilizationEnergyOverdrawMission 0
scalar OsgEarthNet.uav[32] utilizationEnergyOverdrawMaintenance 0
scalar OsgEarthNet.uav[32] utilizationCountMissions 41
scalar OsgEarthNet.uav[32] utilizationCountManeuversMission 448
scalar OsgEarthNet.uav[32] utilizationCountManeuversMaintenance 82
scalar OsgEarthNet.uav[32] utilizationCountChargeState 41
scalar OsgEarthNet.uav[32] utilizationCountOverdrawnAfterMission 0
scalar OsgEarthNet.uav[32] utilizationCountIdleState 41
scalar OsgEarthNet.uav[32] utilizationFail 0
scalar OsgEarthNet.uav[32] simulationTime 259200
scalar OsgEarthNet.uav[33] utilizationSecMission 760.62515258028
scalar OsgEarthNet.uav[33] utilizationSecMaintenance 291.95923480269
scalar OsgEarthNet.uav[33] utilizationSecCharge 3810
scalar OsgEarthNet.uav[33] utilizationSecIdle 254337.41461262
scalar OsgEarthNet.uav[33] utilizationEnergyMission 3354.7500305176
scalar OsgEarthNet.uav[33] utilizationEnergyMaintenance 1427.2281112671
scalar OsgEarthNet.uav[33] utilizationEnergyCharge 4781.9731445312
scalar OsgEarthNet.uav[33] utilizationEnergyOverdrawMission 0
scalar OsgEarthNet.uav[33] utilizationEnergyOverdrawMaintenance 0
scalar OsgEarthNet.uav[33] utilizationCountMissions 1
scalar OsgEarthNet.uav[33] utilizationCountManeuversMission 12
scalar OsgEarthNet.uav[33] utilizationCountManeuversMaintenance 2
scalar OsgEarthNet.uav[33] utilizationCountChargeState 1
scalar OsgEarthNet.uav[33] utilizationCountOverdrawnAfterMission 0
scalar OsgEarthNet.uav[33] utilizationCountIdleState 2
scalar OsgEarthNet.uav[33] utilizationFail 0
scalar OsgEarthNet.uav[33] simulationTime 259200
scalar OsgEarthNet.uav[34] utilizationSecMission 28128.259788399
scalar OsgEarthNet.uav[34] utilizationSecMaintenance 14568.865481736
scalar OsgEarthNet.uav[34] utilizationSecCharge 157944.37735668
scalar OsgEarthNet.uav[34] utilizationSecIdle 58558.496373189
scalar OsgEarthNet.uav[34] utilizationEnergyMission 131942.99775696
scalar OsgEarthNet.uav[34] utilizationEnergyMaintenance 69227.218143463
scalar OsgEarthNet.uav[34] utilizationEnergyCharge 198572.2869873
scalar OsgEarthNet.uav[34] utilizationEnergyOverdrawMission 0
scalar OsgEarthNet.uav[34] utilizationEnergyOverdrawMaintenance 0
scalar OsgEarthNet.uav[34] utilizationCountMissions 43
scalar OsgEarthNet.uav[34] utilizationCountManeuversMission 480
scalar OsgEarthNet.uav[34] utilizationCountManeuversMaintenance 86
scalar OsgEarthNet.uav[34] utilizationCountChargeState 43
scalar OsgEarthNet.uav[34] utilizationCountOverdrawnAfterMission 0
scalar OsgEarthNet.uav[34] utilizationCountIdleState 43
scalar OsgEarthNet.uav[34] utilizationFail 0
scalar OsgEarthNet.uav[34] simulationTime 259200
scalar OsgEarthNet.uav[35] utilizationSecMission 29170.981434661
scalar OsgEarthNet.uav[35] utilizationSecMaintenance 14181.954396182
scalar OsgEarthNet.uav[35] utilizationSecCharge 161655.06316916
scalar OsgEarthNet.uav[35] utilizationSecIdle 54192
scalar OsgEarthNet.uav[35] utilizationEnergyMission 135629.15261696
scalar OsgEarthNet.uav[35] utilizationEnergyMaintenance 67311.9128685
scalar OsgEarthNet.uav[35] utilizationEnergyCharge 202813.85327148
scalar OsgEarthNet.uav[35] utilizationEnergyOverdrawMission 0
scalar OsgEarthNet.uav[35] utilizationEnergyOverdrawMaintenance 0
scalar OsgEarthNet.uav[35] utilizationCountMissions 44
scalar OsgEarthNet.uav[35] utilizationCountManeuversMission 482
scalar OsgEarthNet.uav[35] utilizationCountManeuversMaintenance 87
scalar OsgEarthNet.uav[35] utilizationCountChargeState 44
scalar OsgEarthNet.uav[35] utilizationCountOverdrawnAfterMission 0
scalar OsgEarthNet.uav[35] utilizationCountIdleState 44
scalar OsgEarthNet.uav[35] utilizationFail 0
scalar OsgEarthNet.uav[35] simulationTime 259200
scalar OsgEarthNet.uav[36] utilizationSecMission 29626.228809042
scalar OsgEarthNet.uav[36] utilizationSecMaintenance 13016.084405169
scalar OsgEarthNet.uav[36] utilizationSecCharge 155955.54596405
scalar OsgEarthNet.uav[36] utilizationSecIdle 60602.139821739
scalar OsgEarthNet.uav[36] utilizationEnergyMission 137067.48360443
scalar OsgEarthNet.uav[36] utilizationEnergyMaintenance 60250.298130035
scalar OsgEarthNet.uav[36] utilizationEnergyCharge 196895.57373047
scalar OsgEarthNet.uav[36] utilizationEnergyOverdrawMission 0
scalar OsgEarthNet.uav[36] utilizationEnergyOverdrawMaintenance 0
scalar OsgEarthNet.uav[36] utilizationCountMissions 42
scalar OsgEarthNet.uav[36] utilizationCountManeuversMission 475
scalar OsgEarthNet.uav[36] utilizationCountManeuversMaintenance 84
scalar OsgEarthNet.uav[36] utilizationCountChargeState 42
scalar OsgEarthNet.uav[36] utilizationCountOverdrawnAfterMission 0
scalar OsgEarthNet.uav[36] utilizationCountIdleState 42
scalar OsgEarthNet.uav[36] utilizationFail 0
scalar OsgEarthNet.uav[36] simulationTime 259200
scalar OsgEarthNet.uav[37] utilizationSecMission 21275.476158874
scalar OsgEarthNet.uav[37] utilizationSecMaintenance 9207.5599398141
scalar OsgEarthNet.uav[37] utilizationSecCharge 112120.20790206
scalar OsgEarthNet.uav[37] utilizationSecIdle 116596.75499925
scalar OsgEarthNet.uav[37] utilizationEnergyMission 99220.379043579
scalar OsgEarthNet.uav[37] utilizationEnergyMaintenance 43133.900840759
scalar OsgEarthNet.uav[37] utilizationEnergyCharge 141719.91845703
scalar OsgEarthNet.uav[37] utilizationEnergyOverdrawMission 0
scalar OsgEarthNet.uav[37] utilizationEnergyOverdrawMaintenance 0
scalar OsgEarthNet.uav[37] utilizationCountMissions 30
scalar OsgEarthNet.uav[37] utilizationCountManeuversMission 336
scalar OsgEarthNet.uav[37] utilizationCountManeuversMaintenance 60
scalar OsgEarthNet.uav[37] utilizationCountChargeState 30
scalar OsgEarthNet.uav[37] utilizationCountOverdrawnAfterMission 0
scalar OsgEarthNet.uav[37] utilizationCountIdleState 30
scalar OsgEarthNet.uav[37] utilizationFail 0
scalar OsgEarthNet.uav[37] simulationTime 259200
scalar OsgEarthNet.uav[38] utilizationSecMission 9799.2500361838
scalar OsgEarthNet.uav[38] utilizationSecMaintenance 5334.3765766667
scalar OsgEarthNet.uav[38] utilizationSecCharge 56010
scalar OsgEarthNet.uav[38] utilizationSecIdle 188056.37238715
scalar OsgEarthNet.uav[38] utilizationEnergyMission 45100.301887512
scalar OsgEarthNet.uav[38] utilizationEnergyMaintenance 25020.495788574
scalar OsgEarthNet.uav[38] utilizationEnergyCharge 70391.526367188
scalar OsgEarthNet.uav[38] utilizationEnergyOverdrawMission 0
scalar OsgEarthNet.uav[38] utilizationEnergyOverdrawMaintenance 0
scalar OsgEarthNet.uav[38] utilizationCountMissions 15
scalar OsgEarthNet.uav[38] utilizationCountManeuversMission 162
scalar OsgEarthNet.uav[38] utilizationCountManeuversMaintenance 30
scalar OsgEarthNet.uav[38] utilizationCountChargeState 15
scalar OsgEarthNet.uav[38] utilizationCountOverdrawnAfterMission 0
scalar OsgEarthNet.uav[38] utilizationCountIdleState 16
scalar OsgEarthNet.uav[38] utilizationFail 0
scalar OsgEarthNet.uav[38] simulationTime 259200
scalar OsgEarthNet.uav[39] utilizationSecMission 702.6942798579
scalar OsgEarthNet.uav[39] utilizationSecMaintenance 282.29565405678
scalar OsgEarthNet.uav[39] utilizationSecCharge 3680
scalar OsgEarthNet.uav[39] utilizationSecIdle 254535.00906609
scalar OsgEarthNet.uav[39] utilizationEnergyMission 3195.2754058838
scalar OsgEarthNet.uav[39] utilizationEnergyMaintenance 1387.624004364
scalar OsgEarthNet.uav[39] utilizationEnergyCharge 4582.8979492188
scalar OsgEarthNet.uav[39] utilizationEnergyOverdrawMission 0
scalar OsgEarthNet.uav[39] utilizationEnergyOverdrawMaintenance 0
scalar OsgEarthNet.uav[39] utilizationCountMissions 1
scalar OsgEarthNet.uav[39] utilizationCountManeuversMission 10
scalar OsgEarthNet.uav[39] utilizationCountManeuversMaintenance 2
scalar OsgEarthNet.uav[39] utilizationCountChargeState 1
scalar OsgEarthNet.uav[39] utilizationCountOverdrawnAfterMission 0
scalar OsgEarthNet.uav[39] utilizationCountIdleState 2
scalar OsgEarthNet.uav[39] utilizationFail 0
scalar OsgEarthNet.uav[39] simulationTime 259200
scalar OsgEarthNet.uav[40] utilizationSecMission 313.66140879233
scalar OsgEarthNet.uav[40] utilizationSecMaintenance 546.3657190468
scalar OsgEarthNet.uav[40] utilizationSecCharge 3360
scalar OsgEarthNet.uav[40] utilizationSecIdle 254979.97187216
scalar OsgEarthNet.uav[40] utilizationEnergyMission 1463.0097351074
scalar OsgEarthNet.uav[40] utilizationEnergyMaintenance 2610.4992904663
scalar OsgEarthNet.uav[40] utilizationEnergyCharge 4073.5043945312
scalar OsgEarthNet.uav[40] utilizationEnergyOverdrawMission 0
scalar OsgEarthNet.uav[40] utilizationEnergyOverdrawMaintenance 0
scalar OsgEarthNet.uav[40] utilizationCountMissions 1
scalar OsgEarthNet.uav[40] utilizationCountManeuversMission 5
scalar OsgEarthNet.uav[40] utilizationCountManeuversMaintenance 2
scalar OsgEarthNet.uav[40] utilizationCountChargeState 1
scalar OsgEarthNet.uav[40] utilizationCountOverdrawnAfterMission 0
scalar OsgEarthNet.uav[40] utilizationCountIdleState 2
scalar OsgEarthNet.uav[40] utilizationFail 0
scalar OsgEarthNet.uav[40] simulationTime 259200
scalar OsgEarthNet.uav[41] utilizationSecMission 30045.42222197
scalar OsgEarthNet.uav[41] utilizationSecMaintenance 12652.57677803
scalar OsgEarthNet.uav[41] utilizationSecCharge 157830
scalar OsgEarthNet.uav[41] utilizationSecIdle 58672
scalar OsgEarthNet.uav[41] utilizationEnergyMission 140473.42881775
scalar OsgEarthNet.uav[41] utilizationEnergyMaintenance 58949.401891314
scalar OsgEarthNet.uav[41] utilizationEnergyCharge 198418.74511719
scalar OsgEarthNet.uav[41] utilizationEnergyOverdrawMission 0
scalar OsgEarthNet.uav[41] utilizationEnergyOverdrawMaintenance 0
scalar OsgEarthNet.uav[41] utilizationCountMissions 42
scalar OsgEarthNet.uav[41] utilizationCountManeuversMission 497
scalar OsgEarthNet.uav[41] utilizationCountManeuversMaintenance 84
scalar OsgEarthNet.uav[41] utilizationCountChargeState 42
scalar OsgEarthNet.uav[41] utilizationCountOverdrawnAfterMission 0
scalar OsgEarthNet.uav[41] utilizationCountIdleState 43
scalar OsgEarthNet.uav[41] utilizationFail 0
scalar OsgEarthNet.uav[41] simulationTime 259200
scalar OsgEarthNet.uav[42] utilizationSecMission 27514.798663988
scalar OsgEarthNet.uav[42] utilizationSecMaintenance 14926.797821983
scalar OsgEarthNet.uav[42] utilizationSecCharge 158010
scalar OsgEarthNet.uav[42] utilizationSecIdle 58748.402514029
scalar OsgEarthNet.uav[42] utilizationEnergyMission 127920.01016998
scalar OsgEarthNet.uav[42] utilizationEnergyMaintenance 69378.17987442
scalar OsgEarthNet.uav[42] utilizationEnergyCharge 197417.22558594
scalar OsgEarthNet.uav[42] utilizationEnergyOverdrawMission 0
scalar OsgEarthNet.uav[42] utilizationEnergyOverdrawMaintenance 0
scalar OsgEarthNet.uav[42] utilizationCountMissions 43
scalar OsgEarthNet.uav[42] utilizationCountManeuversMission 463
scalar OsgEarthNet.uav[42] utilizationCountManeuversMaintenance 86
scalar OsgEarthNet.uav[42] utilizationCountChargeState 43
scalar OsgEarthNet.uav[42] utilizationCountOverdrawnAfterMission 0
scalar OsgEarthNet.uav[42] utilizationCountIdleState 44
scalar OsgEarthNet.uav[42] utilizationFail 0
scalar OsgEarthNet.uav[42] simulationTime 259200
scalar OsgEarthNet.uav[43] utilizationSecMission 760.62515258028
scalar OsgEarthNet.uav[43] utilizationSecMaintenance 291.95923480269
scalar OsgEarthNet.uav[43] utilizationSecCharge 3870
scalar OsgEarthNet.uav[43] utilizationSecIdle 254277.41461262
scalar OsgEarthNet.uav[43] utilizationEnergyMission 3475.4237213135
scalar OsgEarthNet.uav[43] utilizationEnergyMaintenance 1419.1754989624
scalar OsgEarthNet.uav[43] utilizationEnergyCharge 4894.603515625
scalar OsgEarthNet.uav[43] utilizationEnergyOverdrawMission 0
scalar OsgEarthNet.uav[43] utilizationEnergyOverdrawMaintenance 0
scalar OsgEarthNet.uav[43] utilizationCountMissions 1
scalar OsgEarthNet.uav[43] utilizationCountManeuversMission 12
scalar OsgEarthNet.uav[43] utilizationCountManeuversMaintenance 2
scalar OsgEarthNet.uav[43] utilizationCountChargeState 1
scalar OsgEarthNet.uav[43] utilizationCountOverdrawnAfterMission 0
scalar OsgEarthNet.uav[43] utilizationCountIdleState 2
scalar OsgEarthNet.uav[43] utilizationFail 0
scalar OsgEarthNet.uav[43] simulationTime 259200
scalar OsgEarthNet.uav[44] utilizationSecMission 28890.759607822
scalar OsgEarthNet.uav[44] utilizationSecMaintenance 16448.66388171
scalar OsgEarthNet.uav[44] utilizationSecCharge 164165.87180639
scalar OsgEarthNet.uav[44] utilizationSecIdle 49694.703704081
scalar OsgEarthNet.uav[44] utilizationEnergyMission 133067.08332825
scalar OsgEarthNet.uav[44] utilizationEnergyMaintenance 76584.66608429
scalar OsgEarthNet.uav[44] utilizationEnergyCharge 205834.24194336
scalar OsgEarthNet.uav[44] utilizationEnergyOverdrawMission 0
scalar OsgEarthNet.uav[44] utilizationEnergyOverdrawMaintenance 0
scalar OsgEarthNet.uav[44] utilizationCountMissions 45
scalar OsgEarthNet.uav[44] utilizationCountManeuversMission 481
scalar OsgEarthNet.uav[44] utilizationCountManeuversMaintenance 90
scalar OsgEarthNet.uav[44] utilizationCountChargeState 45
scalar OsgEarthNet.uav[44] utilizationCountOverdrawnAfterMission 0
scalar OsgEarthNet.uav[44] utilizationCountIdleState 45
scalar OsgEarthNet.uav[44] utilizationFail 0
scalar OsgEarthNet.uav[44] simulationTime 259200
scalar OsgEarthNet.uav[45] utilizationSecMission 929.66633852757
scalar OsgEarthNet.uav[45] utilizationSecMaintenance 183.39004742748
scalar OsgEarthNet.uav[45] utilizationSecCharge 3860
scalar OsgEarthNet.uav[45] utilizationSecIdle 254226.94261404
scalar OsgEarthNet.uav[45] utilizationEnergyMission 4365.7707061767
scalar OsgEarthNet.uav[45] utilizationEnergyMaintenance 732.73387908936
scalar OsgEarthNet.uav[45] utilizationEnergyCharge 4890.55078125
scalar OsgEarthNet.uav[45] utilizationEnergyOverdrawMission 0
scalar OsgEarthNet.uav[45] utilizationEnergyOverdrawMaintenance 0
scalar OsgEarthNet.uav[45] utilizationCountMissions 1
scalar OsgEarthNet.uav[45] utilizationCountManeuversMission 15
scalar OsgEarthNet.uav[45] utilizationCountManeuversMaintenance 2
scalar OsgEarthNet.uav[45] utilizationCountChargeState 1
scalar OsgEarthNet.uav[45] utilizationCountOverdrawnAfterMission 0
scalar OsgEarthNet.uav[45] utilizationCountIdleState 2
scalar OsgEarthNet.uav[45] utilizationFail 0
scalar OsgEarthNet.uav[45] simulationTime 259200
scalar OsgEarthNet.uav[46] utilizationSecMission 29337.015487076
scalar OsgEarthNet.uav[46] utilizationSecMaintenance 14627.362318698
scalar OsgEarthNet.uav[46] utilizationSecCharge 160323.62119423
scalar OsgEarthNet.uav[46] utilizationSecIdle 54912
scalar OsgEarthNet.uav[46] utilizationEnergyMission 137108.7232108
scalar OsgEarthNet.uav[46] utilizationEnergyMaintenance 68246.74937439
scalar OsgEarthNet.uav[46] utilizationEnergyCharge 200814.29510498
scalar OsgEarthNet.uav[46] utilizationEnergyOverdrawMission 0
scalar OsgEarthNet.uav[46] utilizationEnergyOverdrawMaintenance 0
scalar OsgEarthNet.uav[46] utilizationCountMissions 44
scalar OsgEarthNet.uav[46] utilizationCountManeuversMission 487
scalar OsgEarthNet.uav[46] utilizationCountManeuversMaintenance 87
scalar OsgEarthNet.uav[46] utilizationCountChargeState 44
scalar OsgEarthNet.uav[46] utilizationCountOverdrawnAfterMission 0
scalar OsgEarthNet.uav[46] utilizationCountIdleState 44
scalar OsgEarthNet.uav[46] utilizationFail 0
scalar OsgEarthNet.uav[46] simulationTime 259200
scalar OsgEarthNet.uav[47] utilizationSecMission 583.81443570057
scalar OsgEarthNet.uav[47] utilizationSecMaintenance 461.61457045686
scalar OsgEarthNet.uav[47] utilizationSecCharge 3810
scalar OsgEarthNet.uav[47] utilizationSecIdle 254344.56999384
scalar OsgEarthNet.uav[47] utilizationEnergyMission 2758.6187133789
scalar OsgEarthNet.uav[47] utilizationEnergyMaintenance 2195.2612419128
scalar OsgEarthNet.uav[47] utilizationEnergyCharge 4801.9418945312
scalar OsgEarthNet.uav[47] utilizationEnergyOverdrawMission 0
scalar OsgEarthNet.uav[47] utilizationEnergyOverdrawMaintenance 0
scalar OsgEarthNet.uav[47] utilizationCountMissions 1
scalar OsgEarthNet.uav[47] utilizationCountManeuversMission 9
scalar OsgEarthNet.uav[47] utilizationCountManeuversMaintenance 2
scalar OsgEarthNet.uav[47] utilizationCountChargeState 1
scalar OsgEarthNet.uav[47] utilizationCountOverdrawnAfterMission 0
scalar OsgEarthNet.uav[47] utilizationCountIdleState 2
scalar OsgEarthNet.uav[47] utilizationFail 0
scalar OsgEarthNet.uav[47] simulationTime 259200
scalar OsgEarthNet.uav[48] utilizationSecMission 694.00169469977
scalar OsgEarthNet.uav[48] utilizationSecMaintenance 282.18572599206
scalar OsgEarthNet.uav[48] utilizationSecCharge 3610
scalar OsgEarthNet.uav[48] utilizationSecIdle 254613.81157931
scalar OsgEarthNet.uav[48] utilizationEnergyMission 3175.9757843018
scalar OsgEarthNet.uav[48] utilizationEnergyMaintenance 1241.7332687378
scalar OsgEarthNet.uav[48] utilizationEnergyCharge 4417.7119140625
scalar OsgEarthNet.uav[48] utilizationEnergyOverdrawMission 0
scalar OsgEarthNet.uav[48] utilizationEnergyOverdrawMaintenance 0
scalar OsgEarthNet.uav[48] utilizationCountMissions 1
scalar OsgEarthNet.uav[48] utilizationCountManeuversMission 13
scalar OsgEarthNet.uav[48] utilizationCountManeuversMaintenance 2
scalar OsgEarthNet.uav[48] utilizationCountChargeState 1
scalar OsgEarthNet.uav[48] utilizationCountOverdrawnAfterMission 0
scalar OsgEarthNet.uav[48] utilizationCountIdleState 2
scalar OsgEarthNet.uav[48] utilizationFail 0
scalar OsgEarthNet.uav[48] simulationTime 259200
scalar OsgEarthNet.uav[49] utilizationSecMission 684.4732299383
scalar OsgEarthNet.uav[49] utilizationSecMaintenance 298.56834692969
scalar OsgEarthNet.uav[49] utilizationSecCharge 3720
scalar OsgEarthNet.uav[49] utilizationSecIdle 254496.95742313
scalar OsgEarthNet.uav[49] utilizationEnergyMission 3247.0688781738
scalar OsgEarthNet.uav[49] utilizationEnergyMaintenance 1388.8067245483
scalar OsgEarthNet.uav[49] utilizationEnergyCharge 4635.8754882812
scalar OsgEarthNet.uav[49] utilizationEnergyOverdrawMission 0
scalar OsgEarthNet.uav[49] utilizationEnergyOverdrawMaintenance 0
scalar OsgEarthNet.uav[49] utilizationCountMissions 1
scalar OsgEarthNet.uav[49] utilizationCountManeuversMission 11
scalar OsgEarthNet.uav[49] utilizationCountManeuversMaintenance 2
scalar OsgEarthNet.uav[49] utilizationCountChargeState 1
scalar OsgEarthNet.uav[49] utilizationCountOverdrawnAfterMission 0
scalar OsgEarthNet.uav[49] utilizationCountIdleState 2
scalar OsgEarthNet.uav[49] utilizationFail 0
scalar OsgEarthNet.uav[49] simulationTime 259200
scalar OsgEarthNet.uav[50] utilizationSecMission 702.6942798579
scalar OsgEarthNet.uav[50] utilizationSecMaintenance 282.29565405678
scalar OsgEarthNet.uav[50] utilizationSecCharge 3670
scalar OsgEarthNet.uav[50] utilizationSecIdle 254545.00906609
scalar OsgEarthNet.uav[50] utilizationEnergyMission 3232.9614257813
scalar OsgEarthNet.uav[50] utilizationEnergyMaintenance 1397.5843009949
scalar OsgEarthNet.uav[50] utilizationEnergyCharge 4630.5498046875
scalar OsgEarthNet.uav[50] utilizationEnergyOverdrawMission 0
scalar OsgEarthNet.uav[50] utilizationEnergyOverdrawMaintenance 0
scalar OsgEarthNet.uav[50] utilizationCountMissions 1
scalar OsgEarthNet.uav[50] utilizationCountManeuversMission 10
scalar OsgEarthNet.uav[50] utilizationCountManeuversMaintenance 2
scalar OsgEarthNet.uav[50] utilizationCountChargeState 1
scalar OsgEarthNet.uav[50] utilizationCountOverdrawnAfterMission 0
scalar OsgEarthNet.uav[50] utilizationCountIdleState 2
scalar OsgEarthNet.uav[50] utilizationFail 0
scalar OsgEarthNet.uav[50] simulationTime 259200
scalar OsgEarthNet.uav[51] utilizationSecMission 597.53391521556
scalar OsgEarthNet.uav[51] utilizationSecMaintenance 388.71128889908
scalar OsgEarthNet.uav[51] utilizationSecCharge 3780
scalar OsgEarthNet.uav[51] utilizationSecIdle 254433.75379589
scalar OsgEarthNet.uav[51] utilizationEnergyMission 3037.3858032227
scalar OsgEarthNet.uav[51] utilizationEnergyMaintenance 1949.9682426453
scalar OsgEarthNet.uav[51] utilizationEnergyCharge 4820.5703125
scalar OsgEarthNet.uav[51] utilizationEnergyOverdrawMission 0
scalar OsgEarthNet.uav[51] utilizationEnergyOverdrawMaintenance 0
scalar OsgEarthNet.uav[51] utilizationCountMissions 1
scalar OsgEarthNet.uav[51] utilizationCountManeuversMission 9
scalar OsgEarthNet.uav[51] utilizationCountManeuversMaintenance 2
scalar OsgEarthNet.uav[51] utilizationCountChargeState 1
scalar OsgEarthNet.uav[51] utilizationCountOverdrawnAfterMission 0
scalar OsgEarthNet.uav[51] utilizationCountIdleState 2
scalar OsgEarthNet.uav[51] utilizationFail 0
scalar OsgEarthNet.uav[51] simulationTime 259200
scalar OsgEarthNet.uav[52] utilizationSecMission 694.00169469977
scalar OsgEarthNet.uav[52] utilizationSecMaintenance 282.18572599206
scalar OsgEarthNet.uav[52] utilizationSecCharge 3840
scalar OsgEarthNet.uav[52] utilizationSecIdle 254383.81157931
scalar OsgEarthNet.uav[52] utilizationEnergyMission 3428.1356582642
scalar OsgEarthNet.uav[52] utilizationEnergyMaintenance 1388.3852157593
scalar OsgEarthNet.uav[52] utilizationEnergyCharge 4816.5200195312
scalar OsgEarthNet.uav[52] utilizationEnergyOverdrawMission 0
scalar OsgEarthNet.uav[52] utilizationEnergyOverdrawMaintenance 0
scalar OsgEarthNet.uav[52] utilizationCountMissions 1
scalar OsgEarthNet.uav[52] utilizationCountManeuversMission 13
scalar OsgEarthNet.uav[52] utilizationCountManeuversMaintenance 2
scalar OsgEarthNet.uav[52] utilizationCountChargeState 1
scalar OsgEarthNet.uav[52] utilizationCountOverdrawnAfterMission 0
scalar OsgEarthNet.uav[52] utilizationCountIdleState 2
scalar OsgEarthNet.uav[52] utilizationFail 0
scalar OsgEarthNet.uav[52] simulationTime 259200
scalar OsgEarthNet.uav[53] utilizationSecMission 28804.617836907
scalar OsgEarthNet.uav[53] utilizationSecMaintenance 13491.106181133
scalar OsgEarthNet.uav[53] utilizationSecCharge 156370
scalar OsgEarthNet.uav[53] utilizationSecIdle 60534.27498196
scalar OsgEarthNet.uav[53] utilizationEnergyMission 133990.557827
scalar OsgEarthNet.uav[53] utilizationEnergyMaintenance 61934.79650116
scalar OsgEarthNet.uav[53] utilizationEnergyCharge 195886.47705078
scalar OsgEarthNet.uav[53] utilizationEnergyOverdrawMission 0
scalar OsgEarthNet.uav[53] utilizationEnergyOverdrawMaintenance 0
scalar OsgEarthNet.uav[53] utilizationCountMissions 42
scalar OsgEarthNet.uav[53] utilizationCountManeuversMission 463
scalar OsgEarthNet.uav[53] utilizationCountManeuversMaintenance 84
scalar OsgEarthNet.uav[53] utilizationCountChargeState 42
scalar OsgEarthNet.uav[53] utilizationCountOverdrawnAfterMission 0
scalar OsgEarthNet.uav[53] utilizationCountIdleState 43
scalar OsgEarthNet.uav[53] utilizationFail 0
scalar OsgEarthNet.uav[53] simulationTime 259200
scalar OsgEarthNet.uav[54] utilizationSecMission 23364.78157895
scalar OsgEarthNet.uav[54] utilizationSecMaintenance 12508.504239812
scalar OsgEarthNet.uav[54] utilizationSecCharge 133200
scalar OsgEarthNet.uav[54] utilizationSecIdle 90126.713181237
scalar OsgEarthNet.uav[54] utilizationEnergyMission 107767.97188568
scalar OsgEarthNet.uav[54] utilizationEnergyMaintenance 58992.228118896
scalar OsgEarthNet.uav[54] utilizationEnergyCharge 166616.99291992
scalar OsgEarthNet.uav[54] utilizationEnergyOverdrawMission 0
scalar OsgEarthNet.uav[54] utilizationEnergyOverdrawMaintenance 0
scalar OsgEarthNet.uav[54] utilizationCountMissions 36
scalar OsgEarthNet.uav[54] utilizationCountManeuversMission 400
scalar OsgEarthNet.uav[54] utilizationCountManeuversMaintenance 72
scalar OsgEarthNet.uav[54] utilizationCountChargeState 36
scalar OsgEarthNet.uav[54] utilizationCountOverdrawnAfterMission 0
scalar OsgEarthNet.uav[54] utilizationCountIdleState 37
scalar OsgEarthNet.uav[54] utilizationFail 0
scalar OsgEarthNet.uav[54] simulationTime 259200
scalar OsgEarthNet.uav[55] utilizationSecMission 1681.7233210089
scalar OsgEarthNet.uav[55] utilizationSecMaintenance 1300.2387271122
scalar OsgEarthNet.uav[55] utilizationSecCharge 11180
scalar OsgEarthNet.uav[55] utilizationSecIdle 245038.03695188
scalar OsgEarthNet.uav[55] utilizationEnergyMission 7995.2422180176
scalar OsgEarthNet.uav[55] utilizationEnergyMaintenance 6061.9408302307
scalar OsgEarthNet.uav[55] utilizationEnergyCharge 14057.181152344
scalar OsgEarthNet.uav[55] utilizationEnergyOverdrawMission 0
scalar OsgEarthNet.uav[55] utilizationEnergyOverdrawMaintenance 0
scalar OsgEarthNet.uav[55] utilizationCountMissions 3
scalar OsgEarthNet.uav[55] utilizationCountManeuversMission 31
scalar OsgEarthNet.uav[55] utilizationCountManeuversMaintenance 6
scalar OsgEarthNet.uav[55] utilizationCountChargeState 3
scalar OsgEarthNet.uav[55] utilizationCountOverdrawnAfterMission 0
scalar OsgEarthNet.uav[55] utilizationCountIdleState 4
scalar OsgEarthNet.uav[55] utilizationFail 0
scalar OsgEarthNet.uav[55] simulationTime 259200
scalar OsgEarthNet.uav[56] utilizationSecMission 760.62515258028
scalar OsgEarthNet.uav[56] utilizationSecMaintenance 291.95923480269
scalar OsgEarthNet.uav[56] utilizationSecCharge 3760
scalar OsgEarthNet.uav[56] utilizationSecIdle 254387.41461262
scalar OsgEarthNet.uav[56] utilizationEnergyMission 3356.9629974365
scalar OsgEarthNet.uav[56] utilizationEnergyMaintenance 1394.5223922729
scalar OsgEarthNet.uav[56] utilizationEnergyCharge 4751.486328125
scalar OsgEarthNet.uav[56] utilizationEnergyOverdrawMission 0
scalar OsgEarthNet.uav[56] utilizationEnergyOverdrawMaintenance 0
scalar OsgEarthNet.uav[56] utilizationCountMissions 1
scalar OsgEarthNet.uav[56] utilizationCountManeuversMission 12
scalar OsgEarthNet.uav[56] utilizationCountManeuversMaintenance 2
scalar OsgEarthNet.uav[56] utilizationCountChargeState 1
scalar OsgEarthNet.uav[56] utilizationCountOverdrawnAfterMission 0
scalar OsgEarthNet.uav[56] utilizationCountIdleState 2
scalar OsgEarthNet.uav[56] utilizationFail 0
scalar OsgEarthNet.uav[56] simulationTime 259200
scalar OsgEarthNet.uav[57] utilizationSecMission 27727.009758509
scalar OsgEarthNet.uav[57] utilizationSecMaintenance 14420.618717542
scalar OsgEarthNet.uav[57] utilizationSecCharge 153400
scalar OsgEarthNet.uav[57] utilizationSecIdle 63652.370523949
scalar OsgEarthNet.uav[57] utilizationEnergyMission 126965.86840857
scalar OsgEarthNet.uav[57] utilizationEnergyMaintenance 68830.358379364
scalar OsgEarthNet.uav[57] utilizationEnergyCharge 192842.43505859
scalar OsgEarthNet.uav[57] utilizationEnergyOverdrawMission 0
scalar OsgEarthNet.uav[57] utilizationEnergyOverdrawMaintenance 0
scalar OsgEarthNet.uav[57] utilizationCountMissions 41
scalar OsgEarthNet.uav[57] utilizationCountManeuversMission 454
scalar OsgEarthNet.uav[57] utilizationCountManeuversMaintenance 83
scalar OsgEarthNet.uav[57] utilizationCountChargeState 41
scalar OsgEarthNet.uav[57] utilizationCountOverdrawnAfterMission 0
scalar OsgEarthNet.uav[57] utilizationCountIdleState 42
scalar OsgEarthNet.uav[57] utilizationFail 0
scalar OsgEarthNet.uav[57] simulationTime 259200
scalar OsgEarthNet.uav[58] utilizationSecMission 26419.985473722
scalar OsgEarthNet.uav[58] utilizationSecMaintenance 14288.816456709
scalar OsgEarthNet.uav[58] utilizationSecCharge 147414.3110839
scalar OsgEarthNet.uav[58] utilizationSecIdle 71076.885985668
scalar OsgEarthNet.uav[58] utilizationEnergyMission 122276.01455688
scalar OsgEarthNet.uav[58] utilizationEnergyMaintenance 67101.576538086
scalar OsgEarthNet.uav[58] utilizationEnergyCharge 185610.79119873
scalar OsgEarthNet.uav[58] utilizationEnergyOverdrawMission 0
scalar OsgEarthNet.uav[58] utilizationEnergyOverdrawMaintenance 0
scalar OsgEarthNet.uav[58] utilizationCountMissions 40
scalar OsgEarthNet.uav[58] utilizationCountManeuversMission 435
scalar OsgEarthNet.uav[58] utilizationCountManeuversMaintenance 80
scalar OsgEarthNet.uav[58] utilizationCountChargeState 40
scalar OsgEarthNet.uav[58] utilizationCountOverdrawnAfterMission 0
scalar OsgEarthNet.uav[58] utilizationCountIdleState 40
scalar OsgEarthNet.uav[58] utilizationFail 0
scalar OsgEarthNet.uav[58] simulationTime 259200
scalar OsgEarthNet.uav[59] utilizationSecMission 664.13705230755
scalar OsgEarthNet.uav[59] utilizationSecMaintenance 395.66948748195
scalar OsgEarthNet.uav[59] utilizationSecCharge 3860
scalar OsgEarthNet.uav[59] utilizationSecIdle 254280.19246021
scalar OsgEarthNet.uav[59] utilizationEnergyMission 3020.9900817871
scalar OsgEarthNet.uav[59] utilizationEnergyMaintenance 1851.6715354919
scalar OsgEarthNet.uav[59] utilizationEnergyCharge 4928.5927734375
scalar OsgEarthNet.uav[59] utilizationEnergyOverdrawMission 0
scalar OsgEarthNet.uav[59] utilizationEnergyOverdrawMaintenance 0
scalar OsgEarthNet.uav[59] utilizationCountMissions 1
scalar OsgEarthNet.uav[59] utilizationCountManeuversMission 10
scalar OsgEarthNet.uav[59] utilizationCountManeuversMaintenance 2
scalar OsgEarthNet.uav[59] utilizationCountChargeState 1
scalar OsgEarthNet.uav[59] utilizationCountOverdrawnAfterMission 0
scalar OsgEarthNet.uav[59] utilizationCountIdleState 2
scalar OsgEarthNet.uav[59] utilizationFail 0
scalar OsgEarthNet.uav[59] simulationTime 259200
scalar OsgEarthNet.uav[60] utilizationSecMission 760.62515258028
scalar OsgEarthNet.uav[60] utilizationSecMaintenance 291.95923480269
scalar OsgEarthNet.uav[60] utilizationSecCharge 3620
scalar OsgEarthNet.uav[60] utilizationSecIdle 254527.41461262
scalar OsgEarthNet.uav[60] utilizationEnergyMission 3140.4967041016
scalar OsgEarthNet.uav[60] utilizationEnergyMaintenance 1374.2741012573
scalar OsgEarthNet.uav[60] utilizationEnergyCharge 4514.7724609375
scalar OsgEarthNet.uav[60] utilizationEnergyOverdrawMission 0
scalar OsgEarthNet.uav[60] utilizationEnergyOverdrawMaintenance 0
scalar OsgEarthNet.uav[60] utilizationCountMissions 1
scalar OsgEarthNet.uav[60] utilizationCountManeuversMission 12
scalar OsgEarthNet.uav[60] utilizationCountManeuversMaintenance 2
scalar OsgEarthNet.uav[60] utilizationCountChargeState 1
scalar OsgEarthNet.uav[60] utilizationCountOverdrawnAfterMission 0
scalar OsgEarthNet.uav[60] utilizationCountIdleState 2
scalar OsgEarthNet.uav[60] utilizationFail 0
scalar OsgEarthNet.uav[60] simulationTime 259200
scalar OsgEarthNet.uav[61] utilizationSecMission 9018.4872775122
scalar OsgEarthNet.uav[61] utilizationSecMaintenance 4808.8582144043
scalar OsgEarthNet.uav[61] utilizationSecCharge 51460
scalar OsgEarthNet.uav[61] utilizationSecIdle 193912.65350808
scalar OsgEarthNet.uav[61] utilizationEnergyMission 41830.978317261
scalar OsgEarthNet.uav[61] utilizationEnergyMaintenance 22180.914741516
scalar OsgEarthNet.uav[61] utilizationEnergyCharge 64055.006835938
scalar OsgEarthNet.uav[61] utilizationEnergyOverdrawMission 0
scalar OsgEarthNet.uav[61] utilizationEnergyOverdrawMaintenance 0
scalar OsgEarthNet.uav[61] utilizationCountMissions 14
scalar OsgEarthNet.uav[61] utilizationCountManeuversMission 157
scalar OsgEarthNet.uav[61] utilizationCountManeuversMaintenance 28
scalar OsgEarthNet.uav[61] utilizationCountChargeState 14
scalar OsgEarthNet.uav[61] utilizationCountOverdrawnAfterMission 0
scalar OsgEarthNet.uav[61] utilizationCountIdleState 15
scalar OsgEarthNet.uav[61] utilizationFail 0
scalar OsgEarthNet.uav[61] simulationTime 259200
scalar OsgEarthNet.uav[62] utilizationSecMission 887.1741082606
scalar OsgEarthNet.uav[62] utilizationSecMaintenance 171.13387461676
scalar OsgEarthNet.uav[62] utilizationSecCharge 3920
scalar OsgEarthNet.uav[62] utilizationSecIdle 254221.69101712
scalar OsgEarthNet.uav[62] utilizationEnergyMission 4283.5177154541
scalar OsgEarthNet.uav[62] utilizationEnergyMaintenance 876.14589691162
scalar OsgEarthNet.uav[62] utilizationEnergyCharge 4966.0361328125
scalar OsgEarthNet.uav[62] utilizationEnergyOverdrawMission 0
scalar OsgEarthNet.uav[62] utilizationEnergyOverdrawMaintenance 0
scalar OsgEarthNet.uav[62] utilizationCountMissions 1
scalar OsgEarthNet.uav[62] utilizationCountManeuversMission 14
scalar OsgEarthNet.uav[62] utilizationCountManeuversMaintenance 2
scalar OsgEarthNet.uav[62] utilizationCountChargeState 1
scalar OsgEarthNet.uav[62] utilizationCountOverdrawnAfterMission 0
scalar OsgEarthNet.uav[62] utilizationCountIdleState 2
scalar OsgEarthNet.uav[62] utilizationFail 0
scalar OsgEarthNet.uav[62] simulationTime 259200
scalar OsgEarthNet.uav[63] utilizationSecMission 760.62515258028
scalar OsgEarthNet.uav[63] utilizationSecMaintenance 223.6438949726
scalar OsgEarthNet.uav[63] utilizationSecCharge 3690
scalar OsgEarthNet.uav[63] utilizationSecIdle 254525.72995245
scalar OsgEarthNet.uav[63] utilizationEnergyMission 3563.1240692139
scalar OsgEarthNet.uav[63] utilizationEnergyMaintenance 1091.251750946
scalar OsgEarthNet.uav[63] utilizationEnergyCharge 4654.3754882812
scalar OsgEarthNet.uav[63] utilizationEnergyOverdrawMission 0
scalar OsgEarthNet.uav[63] utilizationEnergyOverdrawMaintenance 0
scalar OsgEarthNet.uav[63] utilizationCountMissions 1
scalar OsgEarthNet.uav[63] utilizationCountManeuversMission 12
scalar OsgEarthNet.uav[63] utilizationCountManeuversMaintenance 2
scalar OsgEarthNet.uav[63] utilizationCountChargeState 1
scalar OsgEarthNet.uav[63] utilizationCountOverdrawnAfterMission 0
scalar OsgEarthNet.uav[63] utilizationCountIdleState 2
scalar OsgEarthNet.uav[63] utilizationFail 0
scalar OsgEarthNet.uav[63] simulationTime 259200
scalar OsgEarthNet.uav[64] utilizationSecMission 9902.3476951399
scalar OsgEarthNet.uav[64] utilizationSecMaintenance 5280.2133842625
scalar OsgEarthNet.uav[64] utilizationSecCharge 55990
scalar OsgEarthNet.uav[64] utilizationSecIdle 188027.4379206
scalar OsgEarthNet.uav[64] utilizationEnergyMission 45238.392631531
scalar OsgEarthNet.uav[64] utilizationEnergyMaintenance 25250.979858398
scalar OsgEarthNet.uav[64] utilizationEnergyCharge 70316.215332031
scalar OsgEarthNet.uav[64] utilizationEnergyOverdrawMission 0
scalar OsgEarthNet.uav[64] utilizationEnergyOverdrawMaintenance 0
scalar OsgEarthNet.uav[64] utilizationCountMissions 15
scalar OsgEarthNet.uav[64] utilizationCountManeuversMission 164
scalar OsgEarthNet.uav[64] utilizationCountManeuversMaintenance 30
scalar OsgEarthNet.uav[64] utilizationCountChargeState 15
scalar OsgEarthNet.uav[64] utilizationCountOverdrawnAfterMission 0
scalar OsgEarthNet.uav[64] utilizationCountIdleState 16
scalar OsgEarthNet.uav[64] utilizationFail 0
scalar OsgEarthNet.uav[64] simulationTime 259200
scalar OsgEarthNet.uav[65] utilizationSecMission 887.1741082606
scalar OsgEarthNet.uav[65] utilizationSecMaintenance 148.2728194454
scalar OsgEarthNet.uav[65] utilizationSecCharge 3760
scalar OsgEarthNet.uav[65] utilizationSecIdle 254404.55207229
[...]
scalar OsgEarthNet.uav[82] utilizationEnergyMission 144869.56138611
scalar OsgEarthNet.uav[82] utilizationEnergyMaintenance 59988.505599976
scalar OsgEarthNet.uav[82] utilizationEnergyCharge 204894.5
scalar OsgEarthNet.uav[82] utilizationEnergyOverdrawMission 0
scalar OsgEarthNet.uav[82] utilizationEnergyOverdrawMaintenance 0
scalar OsgEarthNet.uav[82] utilizationCountMissions 44
scalar OsgEarthNet.uav[82] utilizationCountManeuversMission 495
scalar OsgEarthNet.uav[82] utilizationCountManeuversMaintenance 88
scalar OsgEarthNet.uav[82] utilizationCountChargeState 44
scalar OsgEarthNet.uav[82] utilizationCountOverdrawnAfterMission 0
scalar OsgEarthNet.uav[82] utilizationCountIdleState 45
scalar OsgEarthNet.uav[82] utilizationFail 0
scalar OsgEarthNet.uav[82] simulationTime 259200
scalar OsgEarthNet.uav[83] utilizationSecMission 32827.167756131
scalar OsgEarthNet.uav[83] utilizationSecMaintenance 13381.454534792
scalar OsgEarthNet.uav[83] utilizationSecCharge 168469.37670908
scalar OsgEarthNet.uav[83] utilizationSecIdle 44522
scalar OsgEarthNet.uav[83] utilizationEnergyMission 151761.12752533
scalar OsgEarthNet.uav[83] utilizationEnergyMaintenance 63373.923683167
scalar OsgEarthNet.uav[83] utilizationEnergyCharge 211765.10253906
scalar OsgEarthNet.uav[83] utilizationEnergyOverdrawMission 0
scalar OsgEarthNet.uav[83] utilizationEnergyOverdrawMaintenance 0
scalar OsgEarthNet.uav[83] utilizationCountMissions 46
scalar OsgEarthNet.uav[83] utilizationCountManeuversMission 531
scalar OsgEarthNet.uav[83] utilizationCountManeuversMaintenance 91
scalar OsgEarthNet.uav[83] utilizationCountChargeState 46
scalar OsgEarthNet.uav[83] utilizationCountOverdrawnAfterMission 0
scalar OsgEarthNet.uav[83] utilizationCountIdleState 46
scalar OsgEarthNet.uav[83] utilizationFail 0
scalar OsgEarthNet.uav[83] simulationTime 259200
scalar OsgEarthNet.uav[84] utilizationSecMission 29746.03304134
scalar OsgEarthNet.uav[84] utilizationSecMaintenance 13823.504084473
scalar OsgEarthNet.uav[84] utilizationSecCharge 160592.03507556
scalar OsgEarthNet.uav[84] utilizationSecIdle 55038.426798625
scalar OsgEarthNet.uav[84] utilizationEnergyMission 137398.49063873
scalar OsgEarthNet.uav[84] utilizationEnergyMaintenance 65603.659683228
scalar OsgEarthNet.uav[84] utilizationEnergyCharge 202856.41894531
scalar OsgEarthNet.uav[84] utilizationEnergyOverdrawMission 0
scalar OsgEarthNet.uav[84] utilizationEnergyOverdrawMaintenance 0
scalar OsgEarthNet.uav[84] utilizationCountMissions 43
scalar OsgEarthNet.uav[84] utilizationCountManeuversMission 463
scalar OsgEarthNet.uav[84] utilizationCountManeuversMaintenance 86
scalar OsgEarthNet.uav[84] utilizationCountChargeState 43
scalar OsgEarthNet.uav[84] utilizationCountOverdrawnAfterMission 0
scalar OsgEarthNet.uav[84] utilizationCountIdleState 43
scalar OsgEarthNet.uav[84] utilizationFail 0
scalar OsgEarthNet.uav[84] simulationTime 259200
scalar OsgEarthNet.uav[85] utilizationSecMission 17652.649516549
scalar OsgEarthNet.uav[85] utilizationSecMaintenance 8366.6414230065
scalar OsgEarthNet.uav[85] utilizationSecCharge 92550
scalar OsgEarthNet.uav[85] utilizationSecIdle 140630.70806044
scalar OsgEarthNet.uav[85] utilizationEnergyMission 80897.287895203
scalar OsgEarthNet.uav[85] utilizationEnergyMaintenance 39384.209176228
scalar OsgEarthNet.uav[85] utilizationEnergyCharge 115856.13720703
scalar OsgEarthNet.uav[85] utilizationEnergyOverdrawMission 0
scalar OsgEarthNet.uav[85] utilizationEnergyOverdrawMaintenance 0
scalar OsgEarthNet.uav[85] utilizationCountMissions 26
scalar OsgEarthNet.uav[85] utilizationCountManeuversMission 285
scalar OsgEarthNet.uav[85] utilizationCountManeuversMaintenance 52
scalar OsgEarthNet.uav[85] utilizationCountChargeState 25
scalar OsgEarthNet.uav[85] utilizationCountOverdrawnAfterMission 0
scalar OsgEarthNet.uav[85] utilizationCountIdleState 26
scalar OsgEarthNet.uav[85] utilizationFail 0
scalar OsgEarthNet.uav[85] simulationTime 259200
scalar OsgEarthNet.uav[86] utilizationSecMission 760.62515258028
scalar OsgEarthNet.uav[86] utilizationSecMaintenance 291.95923480269
scalar OsgEarthNet.uav[86] utilizationSecCharge 3720
scalar OsgEarthNet.uav[86] utilizationSecIdle 254427.41461262
scalar OsgEarthNet.uav[86] utilizationEnergyMission 3395.5899276733
scalar OsgEarthNet.uav[86] utilizationEnergyMaintenance 1307.5905990601
scalar OsgEarthNet.uav[86] utilizationEnergyCharge 4703.1782226562
scalar OsgEarthNet.uav[86] utilizationEnergyOverdrawMission 0
scalar OsgEarthNet.uav[86] utilizationEnergyOverdrawMaintenance 0
scalar OsgEarthNet.uav[86] utilizationCountMissions 1
scalar OsgEarthNet.uav[86] utilizationCountManeuversMission 12
scalar OsgEarthNet.uav[86] utilizationCountManeuversMaintenance 2
scalar OsgEarthNet.uav[86] utilizationCountChargeState 1
scalar OsgEarthNet.uav[86] utilizationCountOverdrawnAfterMission 0
scalar OsgEarthNet.uav[86] utilizationCountIdleState 2
scalar OsgEarthNet.uav[86] utilizationFail 0
scalar OsgEarthNet.uav[86] simulationTime 259200
scalar OsgEarthNet.uav[87] utilizationSecMission 29976.834140136
scalar OsgEarthNet.uav[87] utilizationSecMaintenance 14102.40713987
scalar OsgEarthNet.uav[87] utilizationSecCharge 163653.35080443
scalar OsgEarthNet.uav[87] utilizationSecIdle 51467.406915565
scalar OsgEarthNet.uav[87] utilizationEnergyMission 138290.31838608
scalar OsgEarthNet.uav[87] utilizationEnergyMaintenance 66696.591152191
scalar OsgEarthNet.uav[87] utilizationEnergyCharge 205135.85351562
scalar OsgEarthNet.uav[87] utilizationEnergyOverdrawMission 0
scalar OsgEarthNet.uav[87] utilizationEnergyOverdrawMaintenance 0
scalar OsgEarthNet.uav[87] utilizationCountMissions 44
scalar OsgEarthNet.uav[87] utilizationCountManeuversMission 486
scalar OsgEarthNet.uav[87] utilizationCountManeuversMaintenance 88
scalar OsgEarthNet.uav[87] utilizationCountChargeState 44
scalar OsgEarthNet.uav[87] utilizationCountOverdrawnAfterMission 0
scalar OsgEarthNet.uav[87] utilizationCountIdleState 44
scalar OsgEarthNet.uav[87] utilizationFail 0
scalar OsgEarthNet.uav[87] simulationTime 259200
scalar OsgEarthNet.uav[88] utilizationSecMission 621.17604176187
scalar OsgEarthNet.uav[88] utilizationSecMaintenance 313.76167006775
scalar OsgEarthNet.uav[88] utilizationSecCharge 3650
scalar OsgEarthNet.uav[88] utilizationSecIdle 254615.06128817
scalar OsgEarthNet.uav[88] utilizationEnergyMission 2970.8558654785
scalar OsgEarthNet.uav[88] utilizationEnergyMaintenance 1543.0199699402
scalar OsgEarthNet.uav[88] utilizationEnergyCharge 4513.8725585938
scalar OsgEarthNet.uav[88] utilizationEnergyOverdrawMission 0
scalar OsgEarthNet.uav[88] utilizationEnergyOverdrawMaintenance 0
scalar OsgEarthNet.uav[88] utilizationCountMissions 1
scalar OsgEarthNet.uav[88] utilizationCountManeuversMission 12
scalar OsgEarthNet.uav[88] utilizationCountManeuversMaintenance 2
scalar OsgEarthNet.uav[88] utilizationCountChargeState 1
scalar OsgEarthNet.uav[88] utilizationCountOverdrawnAfterMission 0
scalar OsgEarthNet.uav[88] utilizationCountIdleState 2
scalar OsgEarthNet.uav[88] utilizationFail 0
scalar OsgEarthNet.uav[88] simulationTime 259200
scalar OsgEarthNet.uav[89] utilizationSecMission 30053.68156371
scalar OsgEarthNet.uav[89] utilizationSecMaintenance 13133.691275501
scalar OsgEarthNet.uav[89] utilizationSecCharge 156790
scalar OsgEarthNet.uav[89] utilizationSecIdle 59222.626160789
scalar OsgEarthNet.uav[89] utilizationEnergyMission 138234.38980512
scalar OsgEarthNet.uav[89] utilizationEnergyMaintenance 62166.08820343
scalar OsgEarthNet.uav[89] utilizationEnergyCharge 196480.25097656
scalar OsgEarthNet.uav[89] utilizationEnergyOverdrawMission 0
scalar OsgEarthNet.uav[89] utilizationEnergyOverdrawMaintenance 0
scalar OsgEarthNet.uav[89] utilizationCountMissions 42
scalar OsgEarthNet.uav[89] utilizationCountManeuversMission 494
scalar OsgEarthNet.uav[89] utilizationCountManeuversMaintenance 85
scalar OsgEarthNet.uav[89] utilizationCountChargeState 42
scalar OsgEarthNet.uav[89] utilizationCountOverdrawnAfterMission 0
scalar OsgEarthNet.uav[89] utilizationCountIdleState 43
scalar OsgEarthNet.uav[89] utilizationFail 0
scalar OsgEarthNet.uav[89] simulationTime 259200
scalar OsgEarthNet.uav[90] utilizationSecMission 750.20472747826
scalar OsgEarthNet.uav[90] utilizationSecMaintenance 261.68051383311
scalar OsgEarthNet.uav[90] utilizationSecCharge 3760
scalar OsgEarthNet.uav[90] utilizationSecIdle 254428.11375869
scalar OsgEarthNet.uav[90] utilizationEnergyMission 3426.837310791
scalar OsgEarthNet.uav[90] utilizationEnergyMaintenance 1297.940990448
scalar OsgEarthNet.uav[90] utilizationEnergyCharge 4724.775390625
scalar OsgEarthNet.uav[90] utilizationEnergyOverdrawMission 0
scalar OsgEarthNet.uav[90] utilizationEnergyOverdrawMaintenance 0
scalar OsgEarthNet.uav[90] utilizationCountMissions 1
scalar OsgEarthNet.uav[90] utilizationCountManeuversMission 11
scalar OsgEarthNet.uav[90] utilizationCountManeuversMaintenance 2
scalar OsgEarthNet.uav[90] utilizationCountChargeState 1
scalar OsgEarthNet.uav[90] utilizationCountOverdrawnAfterMission 0
scalar OsgEarthNet.uav[90] utilizationCountIdleState 2
scalar OsgEarthNet.uav[90] utilizationFail 0
scalar OsgEarthNet.uav[90] simulationTime 259200
scalar OsgEarthNet.uav[91] utilizationSecMission 9201.3058252193
scalar OsgEarthNet.uav[91] utilizationSecMaintenance 4572.6227370317
scalar OsgEarthNet.uav[91] utilizationSecCharge 50940
scalar OsgEarthNet.uav[91] utilizationSecIdle 194486.07043775
scalar OsgEarthNet.uav[91] utilizationEnergyMission 41909.834442139
scalar OsgEarthNet.uav[91] utilizationEnergyMaintenance 21415.385353088
scalar OsgEarthNet.uav[91] utilizationEnergyCharge 63347.734863281
scalar OsgEarthNet.uav[91] utilizationEnergyOverdrawMission 0
scalar OsgEarthNet.uav[91] utilizationEnergyOverdrawMaintenance 0
scalar OsgEarthNet.uav[91] utilizationCountMissions 14
scalar OsgEarthNet.uav[91] utilizationCountManeuversMission 161
scalar OsgEarthNet.uav[91] utilizationCountManeuversMaintenance 28
scalar OsgEarthNet.uav[91] utilizationCountChargeState 14
scalar OsgEarthNet.uav[91] utilizationCountOverdrawnAfterMission 0
scalar OsgEarthNet.uav[91] utilizationCountIdleState 15
scalar OsgEarthNet.uav[91] utilizationFail 0
scalar OsgEarthNet.uav[91] simulationTime 259200
scalar OsgEarthNet.uav[92] utilizationSecMission 29109.895576861
scalar OsgEarthNet.uav[92] utilizationSecMaintenance 13209.147689297
scalar OsgEarthNet.uav[92] utilizationSecCharge 157110
scalar OsgEarthNet.uav[92] utilizationSecIdle 59770.955733842
scalar OsgEarthNet.uav[92] utilizationEnergyMission 134552.86907959
scalar OsgEarthNet.uav[92] utilizationEnergyMaintenance 62174.768928528
scalar OsgEarthNet.uav[92] utilizationEnergyCharge 197272.87597656
scalar OsgEarthNet.uav[92] utilizationEnergyOverdrawMission 0
scalar OsgEarthNet.uav[92] utilizationEnergyOverdrawMaintenance 0
scalar OsgEarthNet.uav[92] utilizationCountMissions 42
scalar OsgEarthNet.uav[92] utilizationCountManeuversMission 479
scalar OsgEarthNet.uav[92] utilizationCountManeuversMaintenance 84
scalar OsgEarthNet.uav[92] utilizationCountChargeState 42
scalar OsgEarthNet.uav[92] utilizationCountOverdrawnAfterMission 0
scalar OsgEarthNet.uav[92] utilizationCountIdleState 43
scalar OsgEarthNet.uav[92] utilizationFail 0
scalar OsgEarthNet.uav[92] simulationTime 259200
scalar OsgEarthNet.uav[93] utilizationSecMission 1588.8188217492
scalar OsgEarthNet.uav[93] utilizationSecMaintenance 523.79570366526
scalar OsgEarthNet.uav[93] utilizationSecCharge 7720
scalar OsgEarthNet.uav[93] utilizationSecIdle 249367.38447459
scalar OsgEarthNet.uav[93] utilizationEnergyMission 6953.5755767822
scalar OsgEarthNet.uav[93] utilizationEnergyMaintenance 2700.1841163635
scalar OsgEarthNet.uav[93] utilizationEnergyCharge 9818.2944335938
scalar OsgEarthNet.uav[93] utilizationEnergyOverdrawMission 0
scalar OsgEarthNet.uav[93] utilizationEnergyOverdrawMaintenance 0
scalar OsgEarthNet.uav[93] utilizationCountMissions 2
scalar OsgEarthNet.uav[93] utilizationCountManeuversMission 25
scalar OsgEarthNet.uav[93] utilizationCountManeuversMaintenance 4
scalar OsgEarthNet.uav[93] utilizationCountChargeState 2
scalar OsgEarthNet.uav[93] utilizationCountOverdrawnAfterMission 0
scalar OsgEarthNet.uav[93] utilizationCountIdleState 3
scalar OsgEarthNet.uav[93] utilizationFail 0
scalar OsgEarthNet.uav[93] simulationTime 259200
scalar OsgEarthNet.uav[94] utilizationSecMission 23395.770188152
scalar OsgEarthNet.uav[94] utilizationSecMaintenance 12417.163902229
scalar OsgEarthNet.uav[94] utilizationSecCharge 132314.80670834
scalar OsgEarthNet.uav[94] utilizationSecIdle 91072.258201276
scalar OsgEarthNet.uav[94] utilizationEnergyMission 108026.2024498
scalar OsgEarthNet.uav[94] utilizationEnergyMaintenance 58468.420864105
scalar OsgEarthNet.uav[94] utilizationEnergyCharge 166395.48803711
scalar OsgEarthNet.uav[94] utilizationEnergyOverdrawMission 0
scalar OsgEarthNet.uav[94] utilizationEnergyOverdrawMaintenance 0
scalar OsgEarthNet.uav[94] utilizationCountMissions 36
scalar OsgEarthNet.uav[94] utilizationCountManeuversMission 378
scalar OsgEarthNet.uav[94] utilizationCountManeuversMaintenance 72
scalar OsgEarthNet.uav[94] utilizationCountChargeState 36
scalar OsgEarthNet.uav[94] utilizationCountOverdrawnAfterMission 0
scalar OsgEarthNet.uav[94] utilizationCountIdleState 36
scalar OsgEarthNet.uav[94] utilizationFail 0
scalar OsgEarthNet.uav[94] simulationTime 259200
scalar OsgEarthNet.uav[95] utilizationSecMission 23889.129469656
scalar OsgEarthNet.uav[95] utilizationSecMaintenance 9292.1444177642
scalar OsgEarthNet.uav[95] utilizationSecCharge 120059.87695058
scalar OsgEarthNet.uav[95] utilizationSecIdle 105958.848162
scalar OsgEarthNet.uav[95] utilizationEnergyMission 110167.93032837
scalar OsgEarthNet.uav[95] utilizationEnergyMaintenance 44341.037254334
scalar OsgEarthNet.uav[95] utilizationEnergyCharge 150727.79296875
scalar OsgEarthNet.uav[95] utilizationEnergyOverdrawMission 0
scalar OsgEarthNet.uav[95] utilizationEnergyOverdrawMaintenance 0
scalar OsgEarthNet.uav[95] utilizationCountMissions 33
scalar OsgEarthNet.uav[95] utilizationCountManeuversMission 380
scalar OsgEarthNet.uav[95] utilizationCountManeuversMaintenance 66
scalar OsgEarthNet.uav[95] utilizationCountChargeState 33
scalar OsgEarthNet.uav[95] utilizationCountOverdrawnAfterMission 0
scalar OsgEarthNet.uav[95] utilizationCountIdleState 33
scalar OsgEarthNet.uav[95] utilizationFail 0
scalar OsgEarthNet.uav[95] simulationTime 259200
scalar OsgEarthNet.uav[96] utilizationSecMission 21243.990548584
scalar OsgEarthNet.uav[96] utilizationSecMaintenance 10051.706948809
scalar OsgEarthNet.uav[96] utilizationSecCharge 116190
scalar OsgEarthNet.uav[96] utilizationSecIdle 111714.30150261
scalar OsgEarthNet.uav[96] utilizationEnergyMission 99068.899108887
scalar OsgEarthNet.uav[96] utilizationEnergyMaintenance 47125.591850559
scalar OsgEarthNet.uav[96] utilizationEnergyCharge 146062.57080078
scalar OsgEarthNet.uav[96] utilizationEnergyOverdrawMission 0
scalar OsgEarthNet.uav[96] utilizationEnergyOverdrawMaintenance 0
scalar OsgEarthNet.uav[96] utilizationCountMissions 31
scalar OsgEarthNet.uav[96] utilizationCountManeuversMission 343
scalar OsgEarthNet.uav[96] utilizationCountManeuversMaintenance 63
scalar OsgEarthNet.uav[96] utilizationCountChargeState 31
scalar OsgEarthNet.uav[96] utilizationCountOverdrawnAfterMission 0
scalar OsgEarthNet.uav[96] utilizationCountIdleState 32
scalar OsgEarthNet.uav[96] utilizationFail 0
scalar OsgEarthNet.uav[96] simulationTime 259200
scalar OsgEarthNet.uav[97] utilizationSecMission 20456.563877664
scalar OsgEarthNet.uav[97] utilizationSecMaintenance 7956.5355926808
scalar OsgEarthNet.uav[97] utilizationSecCharge 104770
scalar OsgEarthNet.uav[97] utilizationSecIdle 126016.89952966
scalar OsgEarthNet.uav[97] utilizationEnergyMission 93829.543449402
scalar OsgEarthNet.uav[97] utilizationEnergyMaintenance 37597.067947388
scalar OsgEarthNet.uav[97] utilizationEnergyCharge 132019.06640625
scalar OsgEarthNet.uav[97] utilizationEnergyOverdrawMission 0
scalar OsgEarthNet.uav[97] utilizationEnergyOverdrawMaintenance 0
scalar OsgEarthNet.uav[97] utilizationCountMissions 28
scalar OsgEarthNet.uav[97] utilizationCountManeuversMission 336
scalar OsgEarthNet.uav[97] utilizationCountManeuversMaintenance 56
scalar OsgEarthNet.uav[97] utilizationCountChargeState 28
scalar OsgEarthNet.uav[97] utilizationCountOverdrawnAfterMission 0
scalar OsgEarthNet.uav[97] utilizationCountIdleState 28
scalar OsgEarthNet.uav[97] utilizationFail 0
scalar OsgEarthNet.uav[97] simulationTime 259200
scalar OsgEarthNet.uav[98] utilizationSecMission 2781.8937003519
scalar OsgEarthNet.uav[98] utilizationSecMaintenance 1412.4136886731
scalar OsgEarthNet.uav[98] utilizationSecCharge 15250
scalar OsgEarthNet.uav[98] utilizationSecIdle 239755.69161098
scalar OsgEarthNet.uav[98] utilizationEnergyMission 12899.479675293
scalar OsgEarthNet.uav[98] utilizationEnergyMaintenance 6264.127620697
scalar OsgEarthNet.uav[98] utilizationEnergyCharge 19163.595703125
scalar OsgEarthNet.uav[98] utilizationEnergyOverdrawMission 0
scalar OsgEarthNet.uav[98] utilizationEnergyOverdrawMaintenance 0
scalar OsgEarthNet.uav[98] utilizationCountMissions 4
scalar OsgEarthNet.uav[98] utilizationCountManeuversMission 46
scalar OsgEarthNet.uav[98] utilizationCountManeuversMaintenance 8
scalar OsgEarthNet.uav[98] utilizationCountChargeState 4
scalar OsgEarthNet.uav[98] utilizationCountOverdrawnAfterMission 0
scalar OsgEarthNet.uav[98] utilizationCountIdleState 5
scalar OsgEarthNet.uav[98] utilizationFail 0
scalar OsgEarthNet.uav[98] simulationTime 259200
scalar OsgEarthNet.uav[99] utilizationSecMission 9225.5350975125
scalar OsgEarthNet.uav[99] utilizationSecMaintenance 5411.2658107142
scalar OsgEarthNet.uav[99] utilizationSecCharge 50878.252030365
scalar OsgEarthNet.uav[99] utilizationSecIdle 193684.94606141
scalar OsgEarthNet.uav[99] utilizationEnergyMission 42372.528381348
scalar OsgEarthNet.uav[99] utilizationEnergyMaintenance 24920.2070961
scalar OsgEarthNet.uav[99] utilizationEnergyCharge 64928.740722656
scalar OsgEarthNet.uav[99] utilizationEnergyOverdrawMission 0
scalar OsgEarthNet.uav[99] utilizationEnergyOverdrawMaintenance 0
scalar OsgEarthNet.uav[99] utilizationCountMissions 14
scalar OsgEarthNet.uav[99] utilizationCountManeuversMission 150
scalar OsgEarthNet.uav[99] utilizationCountManeuversMaintenance 28
scalar OsgEarthNet.uav[99] utilizationCountChargeState 14
scalar OsgEarthNet.uav[99] utilizationCountOverdrawnAfterMission 0
scalar OsgEarthNet.uav[99] utilizationCountIdleState 14
scalar OsgEarthNet.uav[99] utilizationFail 0
scalar OsgEarthNet.uav[99] simulationTime 259200
scalar OsgEarthNet.cs[0] usedPower 424832.56037451
scalar OsgEarthNet.cs[0] chargedPower 424832.56037451
scalar OsgEarthNet.cs[0] chargedMobileNodes 89
scalar OsgEarthNet.cs[0] reservations 93
scalar OsgEarthNet.cs[1] usedPower 1086437.308543
scalar OsgEarthNet.cs[1] chargedPower 1086437.308543
scalar OsgEarthNet.cs[1] chargedMobileNodes 229
scalar OsgEarthNet.cs[1] reservations 233
scalar OsgEarthNet.cs[2] usedPower 2441321.0708322
scalar OsgEarthNet.cs[2] chargedPower 2441321.0708322
scalar OsgEarthNet.cs[2] chargedMobileNodes 513
scalar OsgEarthNet.cs[2] reservations 523
scalar OsgEarthNet.cs[3] usedPower 1029049.1577306
scalar OsgEarthNet.cs[3] chargedPower 1029049.1577306
scalar OsgEarthNet.cs[3] chargedMobileNodes 219
scalar OsgEarthNet.cs[3] reservations 222
scalar OsgEarthNet.cs[4] usedPower 696867.41500964
scalar OsgEarthNet.cs[4] chargedPower 696867.41500964
scalar OsgEarthNet.cs[4] chargedMobileNodes 150
scalar OsgEarthNet.cs[4] reservations 151
scalar OsgEarthNet.cs[5] usedPower 544282.54861624
scalar OsgEarthNet.cs[5] chargedPower 544282.54861624
scalar OsgEarthNet.cs[5] chargedMobileNodes 113
scalar OsgEarthNet.cs[5] reservations 115
scalar OsgEarthNet.cs[6] usedPower 2510133.5670597
scalar OsgEarthNet.cs[6] chargedPower 2510133.5670597
scalar OsgEarthNet.cs[6] chargedMobileNodes 535
scalar OsgEarthNet.cs[6] reservations 541

