version 2
run Szenario_Hotel_Gabelbach-5-20180710-12:17:50-35892
attr configname Szenario_Hotel_Gabelbach
attr datetime 20180710-12:17:50
attr experiment Szenario_Hotel_Gabelbach
attr inifile omnetpp.ini
attr iterationvars "$numUAVs=50, $replM=0, $replSearchM=0"
attr iterationvarsf numUAVs=50,replM=0,replSearchM=0-
attr measurement "$numUAVs=50, $replM=0, $replSearchM=0"
attr network OsgEarthNet
attr processid 35892
attr repetition 5
attr replication #5
attr resultdir results
attr runnumber 5
attr seedset 5
itervar numUAVs 50
itervar replM 0
itervar replSearchM 0
param *.osgEarthScene.scene "\"Szenario_Hotel_Gabelbach.earth\""
param *.playgroundLatitude 50.6830269
param *.playgroundLongitude 10.8538055
param *.playgroundWidth 3500m
param *.playgroundHeight 3500m
param *.cs[0].posX 3537m
param *.cs[0].posY 965m
param *.cs[0].posZ 538m
param *.cs[1].posX 312m
param *.cs[1].posY 1262m
param *.cs[1].posZ 539m
param *.cs[2].posX 2185m
param *.cs[2].posY 3026m
param *.cs[2].posZ 777m
param *.cs[3].posX 10m
param *.cs[3].posY 2200m
param *.cs[3].posZ 560m
param *.cs[4].posX 750m
param *.cs[4].posY 200m
param *.cs[4].posZ 540m
param *.cs[5].posX 2450m
param *.cs[5].posY 180m
param *.cs[5].posZ 524m
param *.cs[6].posX 3140m
param *.cs[6].posY 1790m
param *.cs[6].posZ 606m
param *.numCSs 7
param *.numUAVs 50
param *.uav[*].replacementMethod 0
param *.missionControl.replacementSearchMethod 0
param *.*.timeStep 10s
param *.uav[*].commandPreviewCommandCount 20
param *.missionControl.missionFiles "\"missions\\\\Szenario_WB_Hotel_Gabelbach_Mission_Hotel.waypoints,missions\\\\Szenario_WB_Hotel_Gabelbach_Mission_Kickelhahn.waypoints,missions\\\\Szenario_WB_Hotel_Gabelbach_Mission_Ilmenau_Sportplatz.waypoints,missions\\\\Szenario_WB_Hotel_Gabelbach_Mission_Manebach_Mitte.waypoints,missions\\\\Szenario_WB_Hotel_Gabelbach_Mission_Manebach_Sued.waypoints\""
param *.missionControl.missionFiles "\"missions\\\\Szenario_WB_Hotel_Gabelbach_Mission_Hotel.waypoints,missions\\\\Szenario_WB_Hotel_Gabelbach_Mission_Kickelhahn.waypoints,missions\\\\Szenario_WB_Hotel_Gabelbach_Mission_Ilmenau_Sportplatz.waypoints,missions\\\\Szenario_WB_Hotel_Gabelbach_Mission_Manebach_Mitte.waypoints,missions\\\\Szenario_WB_Hotel_Gabelbach_Mission_Manebach_Sued.waypoints,missions\\\\Szenario_WB_Hotel_Gabelbach_Hover_HoheSchlaufe.waypoints,missions\\\\Szenario_WB_Hotel_Gabelbach_Hover_Kickelhahn.waypoints,missions\\\\Szenario_WB_Hotel_Gabelbach_Hover_Gabelbachskopf.waypoints,missions\\\\Szenario_WB_Hotel_Gabelbach_Hover_Dachskopf.waypoints\""
param *.uav[0].startX 3537m
param *.uav[0].startY 965m
param *.uav[0].startZ 539m
param *.uav[1].startX 312m
param *.uav[1].startY 1262m
param *.uav[1].startZ 540m
param *.uav[2].startX 2185m
param *.uav[2].startY 3026m
param *.uav[2].startZ 778m
param *.uav[3].startX 3537m
param *.uav[3].startY 965m
param *.uav[3].startZ 539m
param *.uav[4].startX 312m
param *.uav[4].startY 1262m
param *.uav[4].startZ 540m
param *.uav[5].startX 2185m
param *.uav[5].startY 3026m
param *.uav[5].startZ 778m
param *.uav[6].startX 3537m
param *.uav[6].startY 965m
param *.uav[6].startZ 539m
param *.uav[7].startX 312m
param *.uav[7].startY 1262m
param *.uav[7].startZ 540m
param *.uav[8].startX 2185m
param *.uav[8].startY 3026m
param *.uav[8].startZ 778m
param *.uav[9].startX 3537m
param *.uav[9].startY 965m
param *.uav[9].startZ 539m
param *.uav[10].startX 3537m
param *.uav[10].startY 965m
param *.uav[10].startZ 539m
param *.uav[11].startX 312m
param *.uav[11].startY 1262m
param *.uav[11].startZ 540m
param *.uav[12].startX 2185m
param *.uav[12].startY 3026m
param *.uav[12].startZ 778m
param *.uav[13].startX 3537m
param *.uav[13].startY 965m
param *.uav[13].startZ 539m
param *.uav[14].startX 312m
param *.uav[14].startY 1262m
param *.uav[14].startZ 540m
param *.uav[15].startX 2185m
param *.uav[15].startY 3026m
param *.uav[15].startZ 778m
param *.uav[16].startX 3537m
param *.uav[16].startY 965m
param *.uav[16].startZ 539m
param *.uav[17].startX 312m
param *.uav[17].startY 1262m
param *.uav[17].startZ 540m
param *.uav[18].startX 2185m
param *.uav[18].startY 3026m
param *.uav[18].startZ 778m
param *.uav[19].startX 3537m
param *.uav[19].startY 965m
param *.uav[19].startZ 539m
param *.uav[20].startX 3537m
param *.uav[20].startY 965m
param *.uav[20].startZ 539m
param *.uav[21].startX 312m
param *.uav[21].startY 1262m
param *.uav[21].startZ 540m
param *.uav[22].startX 2185m
param *.uav[22].startY 3026m
param *.uav[22].startZ 778m
param *.uav[23].startX 3537m
param *.uav[23].startY 965m
param *.uav[23].startZ 539m
param *.uav[24].startX 312m
param *.uav[24].startY 1262m
param *.uav[24].startZ 540m
param *.uav[25].startX 2185m
param *.uav[25].startY 3026m
param *.uav[25].startZ 778m
param *.uav[26].startX 3537m
param *.uav[26].startY 965m
param *.uav[26].startZ 539m
param *.uav[27].startX 312m
param *.uav[27].startY 1262m
param *.uav[27].startZ 540m
param *.uav[28].startX 2185m
param *.uav[28].startY 3026m
param *.uav[28].startZ 778m
param *.uav[29].startX 3537m
param *.uav[29].startY 965m
param *.uav[29].startZ 539m
param *.uav[30].startX 3537m
param *.uav[30].startY 965m
param *.uav[30].startZ 539m
param *.uav[31].startX 312m
param *.uav[31].startY 1262m
param *.uav[31].startZ 540m
param *.uav[32].startX 2185m
param *.uav[32].startY 3026m
param *.uav[32].startZ 778m
param *.uav[33].startX 3537m
param *.uav[33].startY 965m
param *.uav[33].startZ 539m
param *.uav[34].startX 312m
param *.uav[34].startY 1262m
param *.uav[34].startZ 540m
param *.uav[35].startX 2185m
param *.uav[35].startY 3026m
param *.uav[35].startZ 778m
param *.uav[36].startX 3537m
param *.uav[36].startY 965m
param *.uav[36].startZ 539m
param *.uav[37].startX 312m
param *.uav[37].startY 1262m
param *.uav[37].startZ 540m
param *.uav[38].startX 2185m
param *.uav[38].startY 3026m
param *.uav[38].startZ 778m
param *.uav[39].startX 3537m
param *.uav[39].startY 965m
param *.uav[39].startZ 539m
param *.uav[40].startX 3537m
param *.uav[40].startY 965m
param *.uav[40].startZ 539m
param *.uav[41].startX 312m
param *.uav[41].startY 1262m
param *.uav[41].startZ 540m
param *.uav[42].startX 2185m
param *.uav[42].startY 3026m
param *.uav[42].startZ 778m
param *.uav[43].startX 3537m
param *.uav[43].startY 965m
param *.uav[43].startZ 539m
param *.uav[44].startX 312m
param *.uav[44].startY 1262m
param *.uav[44].startZ 540m
param *.uav[45].startX 2185m
param *.uav[45].startY 3026m
param *.uav[45].startZ 778m
param *.uav[46].startX 3537m
param *.uav[46].startY 965m
param *.uav[46].startZ 539m
param *.uav[47].startX 312m
param *.uav[47].startY 1262m
param *.uav[47].startZ 540m
param *.uav[48].startX 2185m
param *.uav[48].startY 3026m
param *.uav[48].startZ 778m
param *.uav[49].startX 3537m
param *.uav[49].startY 965m
param *.uav[49].startZ 539m
param *.uav[50].startX 3537m
param *.uav[50].startY 965m
param *.uav[50].startZ 539m
param *.uav[51].startX 312m
param *.uav[51].startY 1262m
param *.uav[51].startZ 540m
param *.uav[52].startX 2185m
param *.uav[52].startY 3026m
param *.uav[52].startZ 778m
param *.uav[53].startX 3537m
param *.uav[53].startY 965m
param *.uav[53].startZ 539m
param *.uav[54].startX 312m
param *.uav[54].startY 1262m
param *.uav[54].startZ 540m
param *.uav[55].startX 2185m
param *.uav[55].startY 3026m
param *.uav[55].startZ 778m
param *.uav[56].startX 3537m
param *.uav[56].startY 965m
param *.uav[56].startZ 539m
param *.uav[57].startX 312m
param *.uav[57].startY 1262m
param *.uav[57].startZ 540m
param *.uav[58].startX 2185m
param *.uav[58].startY 3026m
param *.uav[58].startZ 778m
param *.uav[59].startX 3537m
param *.uav[59].startY 965m
param *.uav[59].startZ 539m
param *.uav[60].startX 3537m
param *.uav[60].startY 965m
param *.uav[60].startZ 539m
param *.uav[61].startX 312m
param *.uav[61].startY 1262m
param *.uav[61].startZ 540m
param *.uav[62].startX 2185m
param *.uav[62].startY 3026m
param *.uav[62].startZ 778m
param *.uav[63].startX 3537m
param *.uav[63].startY 965m
param *.uav[63].startZ 539m
param *.uav[64].startX 312m
param *.uav[64].startY 1262m
param *.uav[64].startZ 540m
param *.uav[65].startX 2185m
param *.uav[65].startY 3026m
param *.uav[65].startZ 778m
param *.uav[66].startX 3537m
param *.uav[66].startY 965m
param *.uav[66].startZ 539m
param *.uav[67].startX 312m
param *.uav[67].startY 1262m
param *.uav[67].startZ 540m
param *.uav[68].startX 2185m
param *.uav[68].startY 3026m
param *.uav[68].startZ 778m
param *.uav[69].startX 3537m
param *.uav[69].startY 965m
param *.uav[69].startZ 539m
param *.uav[70].startX 3537m
param *.uav[70].startY 965m
param *.uav[70].startZ 539m
param *.uav[71].startX 312m
param *.uav[71].startY 1262m
param *.uav[71].startZ 540m
param *.uav[72].startX 2185m
param *.uav[72].startY 3026m
param *.uav[72].startZ 778m
param *.uav[73].startX 3537m
param *.uav[73].startY 965m
param *.uav[73].startZ 539m
param *.uav[74].startX 312m
param *.uav[74].startY 1262m
param *.uav[74].startZ 540m
param *.uav[75].startX 2185m
param *.uav[75].startY 3026m
param *.uav[75].startZ 778m
param *.uav[76].startX 3537m
param *.uav[76].startY 965m
param *.uav[76].startZ 539m
param *.uav[77].startX 312m
param *.uav[77].startY 1262m
param *.uav[77].startZ 540m
param *.uav[78].startX 2185m
param *.uav[78].startY 3026m
param *.uav[78].startZ 778m
param *.uav[79].startX 3537m
param *.uav[79].startY 965m
param *.uav[79].startZ 539m
param *.uav[80].startX 3537m
param *.uav[80].startY 965m
param *.uav[80].startZ 539m
param *.uav[81].startX 312m
param *.uav[81].startY 1262m
param *.uav[81].startZ 540m
param *.uav[82].startX 2185m
param *.uav[82].startY 3026m
param *.uav[82].startZ 778m
param *.uav[83].startX 3537m
param *.uav[83].startY 965m
param *.uav[83].startZ 539m
param *.uav[84].startX 312m
param *.uav[84].startY 1262m
param *.uav[84].startZ 540m
param *.uav[85].startX 2185m
param *.uav[85].startY 3026m
param *.uav[85].startZ 778m
param *.uav[86].startX 3537m
param *.uav[86].startY 965m
param *.uav[86].startZ 539m
param *.uav[87].startX 312m
param *.uav[87].startY 1262m
param *.uav[87].startZ 540m
param *.uav[88].startX 2185m
param *.uav[88].startY 3026m
param *.uav[88].startZ 778m
param *.uav[89].startX 3537m
param *.uav[89].startY 965m
param *.uav[89].startZ 539m
param *.uav[90].startX 3537m
param *.uav[90].startY 965m
param *.uav[90].startZ 539m
param *.uav[91].startX 312m
param *.uav[91].startY 1262m
param *.uav[91].startZ 540m
param *.uav[92].startX 2185m
param *.uav[92].startY 3026m
param *.uav[92].startZ 778m
param *.uav[93].startX 3537m
param *.uav[93].startY 965m
param *.uav[93].startZ 539m
param *.uav[94].startX 312m
param *.uav[94].startY 1262m
param *.uav[94].startZ 540m
param *.uav[95].startX 2185m
param *.uav[95].startY 3026m
param *.uav[95].startZ 778m
param *.uav[96].startX 3537m
param *.uav[96].startY 965m
param *.uav[96].startZ 539m
param *.uav[97].startX 312m
param *.uav[97].startY 1262m
param *.uav[97].startZ 540m
param *.uav[98].startX 2185m
param *.uav[98].startY 3026m
param *.uav[98].startZ 778m
param *.uav[99].startX 3537m
param *.uav[99].startY 965m
param *.uav[99].startZ 539m
param *.osgEarthScene.scene "\"boston.earth\""
param *.playgroundLatitude 42.3558
param *.playgroundLongitude -71.0677
param *.playgroundWidth 400m
param *.playgroundHeight 200m
param *.channelController.connectionColor "\"#0000FF40\""
param *.channelController.showConnections false
param *.uav[*].modelURL "\"quadrocopter.small.obj.15.scale.0,0,90.rot\""
param *.uav[*].labelColor "\"#FF7C00CC\""
param *.uav[*].label2Color "\"#FF7C00EE\""
param *.uav[*].batteryCapacity 5200mAh
param *.uav[*].batteryRemaining uav[index].batteryCapacity
param *.uav[*].predictionQuantile 0.95
param *.uav[*].replacementMethod 2
param *.uav[*].weightedSumWeight 0.5
param *.cs[*].modelURL "\"chargingstation_v1.osgt.2.scale.0,0,0.rot.0,0,-15e-1.trans\""
param *.cs[*].spotsWaiting 999
param *.cs[*].spotsCharging 999
param *.cs[*].chargeEffectivenessPercentage 100
param *.cs[*].nonLinearPhaseStartPercentage 85
param *.cs[*].chargeCurrent 6.0A
param *.cs[*].prioritizeFastCharge true
param *.missionControl.replacementSearchMethod 0
param *.*.timeStep 9s

scalar OsgEarthNet.uav[0] utilizationSecMission 31027.722284528
scalar OsgEarthNet.uav[0] utilizationSecMaintenance 14866.634672925
scalar OsgEarthNet.uav[0] utilizationSecCharge 168082.38972097
scalar OsgEarthNet.uav[0] utilizationSecIdle 45223.252321579
scalar OsgEarthNet.uav[0] utilizationEnergyMission 143511.74785614
scalar OsgEarthNet.uav[0] utilizationEnergyMaintenance 70649.838386536
scalar OsgEarthNet.uav[0] utilizationEnergyCharge 211296.30712891
scalar OsgEarthNet.uav[0] utilizationEnergyOverdrawMission 0
scalar OsgEarthNet.uav[0] utilizationEnergyOverdrawMaintenance 0
scalar OsgEarthNet.uav[0] utilizationCountMissions 46
scalar OsgEarthNet.uav[0] utilizationCountManeuversMission 491
scalar OsgEarthNet.uav[0] utilizationCountManeuversMaintenance 92
scalar OsgEarthNet.uav[0] utilizationCountChargeState 46
scalar OsgEarthNet.uav[0] utilizationCountOverdrawnAfterMission 0
scalar OsgEarthNet.uav[0] utilizationCountIdleState 46
scalar OsgEarthNet.uav[0] utilizationFail 0
scalar OsgEarthNet.uav[0] simulationTime 259200
scalar OsgEarthNet.uav[1] utilizationSecMission 27871.870947017
scalar OsgEarthNet.uav[1] utilizationSecMaintenance 16303.961147162
scalar OsgEarthNet.uav[1] utilizationSecCharge 162940
scalar OsgEarthNet.uav[1] utilizationSecIdle 52084.16690582
scalar OsgEarthNet.uav[1] utilizationEnergyMission 128908.9344635
scalar OsgEarthNet.uav[1] utilizationEnergyMaintenance 75650.151412964
scalar OsgEarthNet.uav[1] utilizationEnergyCharge 204215.40722656
scalar OsgEarthNet.uav[1] utilizationEnergyOverdrawMission 0
scalar OsgEarthNet.uav[1] utilizationEnergyOverdrawMaintenance 0
scalar OsgEarthNet.uav[1] utilizationCountMissions 44
scalar OsgEarthNet.uav[1] utilizationCountManeuversMission 485
scalar OsgEarthNet.uav[1] utilizationCountManeuversMaintenance 88
scalar OsgEarthNet.uav[1] utilizationCountChargeState 44
scalar OsgEarthNet.uav[1] utilizationCountOverdrawnAfterMission 0
scalar OsgEarthNet.uav[1] utilizationCountIdleState 45
scalar OsgEarthNet.uav[1] utilizationFail 0
scalar OsgEarthNet.uav[1] simulationTime 259200
scalar OsgEarthNet.uav[2] utilizationSecMission 29315.82718526
scalar OsgEarthNet.uav[2] utilizationSecMaintenance 16256.721550709
scalar OsgEarthNet.uav[2] utilizationSecCharge 167040
scalar OsgEarthNet.uav[2] utilizationSecIdle 46587.450264031
scalar OsgEarthNet.uav[2] utilizationEnergyMission 134384.05002692
scalar OsgEarthNet.uav[2] utilizationEnergyMaintenance 76622.740451813
scalar OsgEarthNet.uav[2] utilizationEnergyCharge 209666.24853516
scalar OsgEarthNet.uav[2] utilizationEnergyOverdrawMission 0
scalar OsgEarthNet.uav[2] utilizationEnergyOverdrawMaintenance 0
scalar OsgEarthNet.uav[2] utilizationCountMissions 45
scalar OsgEarthNet.uav[2] utilizationCountManeuversMission 489
scalar OsgEarthNet.uav[2] utilizationCountManeuversMaintenance 91
scalar OsgEarthNet.uav[2] utilizationCountChargeState 45
scalar OsgEarthNet.uav[2] utilizationCountOverdrawnAfterMission 0
scalar OsgEarthNet.uav[2] utilizationCountIdleState 46
scalar OsgEarthNet.uav[2] utilizationFail 0
scalar OsgEarthNet.uav[2] simulationTime 259200
scalar OsgEarthNet.uav[3] utilizationSecMission 373.51498974598
scalar OsgEarthNet.uav[3] utilizationSecMaintenance 615.18747367862
scalar OsgEarthNet.uav[3] utilizationSecCharge 3770
scalar OsgEarthNet.uav[3] utilizationSecIdle 254441.29653658
scalar OsgEarthNet.uav[3] utilizationEnergyMission 1886.9778289795
scalar OsgEarthNet.uav[3] utilizationEnergyMaintenance 2883.612071991
scalar OsgEarthNet.uav[3] utilizationEnergyCharge 4770.5952148438
scalar OsgEarthNet.uav[3] utilizationEnergyOverdrawMission 0
scalar OsgEarthNet.uav[3] utilizationEnergyOverdrawMaintenance 0
scalar OsgEarthNet.uav[3] utilizationCountMissions 1
scalar OsgEarthNet.uav[3] utilizationCountManeuversMission 7
scalar OsgEarthNet.uav[3] utilizationCountManeuversMaintenance 2
scalar OsgEarthNet.uav[3] utilizationCountChargeState 1
scalar OsgEarthNet.uav[3] utilizationCountOverdrawnAfterMission 0
scalar OsgEarthNet.uav[3] utilizationCountIdleState 2
scalar OsgEarthNet.uav[3] utilizationFail 0
scalar OsgEarthNet.uav[3] simulationTime 259200
scalar OsgEarthNet.uav[4] utilizationSecMission 28687.091366319
scalar OsgEarthNet.uav[4] utilizationSecMaintenance 16656.336027092
scalar OsgEarthNet.uav[4] utilizationSecCharge 163809.16520112
scalar OsgEarthNet.uav[4] utilizationSecIdle 50047.406405466
scalar OsgEarthNet.uav[4] utilizationEnergyMission 133269.43689728
scalar OsgEarthNet.uav[4] utilizationEnergyMaintenance 76566.061546326
scalar OsgEarthNet.uav[4] utilizationEnergyCharge 205723.62597656
scalar OsgEarthNet.uav[4] utilizationEnergyOverdrawMission 0
scalar OsgEarthNet.uav[4] utilizationEnergyOverdrawMaintenance 0
scalar OsgEarthNet.uav[4] utilizationCountMissions 45
scalar OsgEarthNet.uav[4] utilizationCountManeuversMission 475
scalar OsgEarthNet.uav[4] utilizationCountManeuversMaintenance 90
scalar OsgEarthNet.uav[4] utilizationCountChargeState 45
scalar OsgEarthNet.uav[4] utilizationCountOverdrawnAfterMission 0
scalar OsgEarthNet.uav[4] utilizationCountIdleState 45
scalar OsgEarthNet.uav[4] utilizationFail 0
scalar OsgEarthNet.uav[4] simulationTime 259200
scalar OsgEarthNet.uav[5] utilizationSecMission 32027.755947137
scalar OsgEarthNet.uav[5] utilizationSecMaintenance 14334.542773974
scalar OsgEarthNet.uav[5] utilizationSecCharge 169075.70027889
scalar OsgEarthNet.uav[5] utilizationSecIdle 43762
scalar OsgEarthNet.uav[5] utilizationEnergyMission 147237.83696351
scalar OsgEarthNet.uav[5] utilizationEnergyMaintenance 68121.876411438
scalar OsgEarthNet.uav[5] utilizationEnergyCharge 212947.14331055
scalar OsgEarthNet.uav[5] utilizationEnergyOverdrawMission 0
scalar OsgEarthNet.uav[5] utilizationEnergyOverdrawMaintenance 0
scalar OsgEarthNet.uav[5] utilizationCountMissions 46
scalar OsgEarthNet.uav[5] utilizationCountManeuversMission 519
scalar OsgEarthNet.uav[5] utilizationCountManeuversMaintenance 91
scalar OsgEarthNet.uav[5] utilizationCountChargeState 46
scalar OsgEarthNet.uav[5] utilizationCountOverdrawnAfterMission 0
scalar OsgEarthNet.uav[5] utilizationCountIdleState 46
scalar OsgEarthNet.uav[5] utilizationFail 0
scalar OsgEarthNet.uav[5] simulationTime 259200
scalar OsgEarthNet.uav[6] utilizationSecMission 25706.228431709
scalar OsgEarthNet.uav[6] utilizationSecMaintenance 12399.195317174
scalar OsgEarthNet.uav[6] utilizationSecCharge 137390
scalar OsgEarthNet.uav[6] utilizationSecIdle 83704.575251117
scalar OsgEarthNet.uav[6] utilizationEnergyMission 118742.9168396
scalar OsgEarthNet.uav[6] utilizationEnergyMaintenance 57866.824433501
scalar OsgEarthNet.uav[6] utilizationEnergyCharge 172254.74755859
scalar OsgEarthNet.uav[6] utilizationEnergyOverdrawMission 0
scalar OsgEarthNet.uav[6] utilizationEnergyOverdrawMaintenance 0
scalar OsgEarthNet.uav[6] utilizationCountMissions 38
scalar OsgEarthNet.uav[6] utilizationCountManeuversMission 423
scalar OsgEarthNet.uav[6] utilizationCountManeuversMaintenance 76
scalar OsgEarthNet.uav[6] utilizationCountChargeState 37
scalar OsgEarthNet.uav[6] utilizationCountOverdrawnAfterMission 0
scalar OsgEarthNet.uav[6] utilizationCountIdleState 38
scalar OsgEarthNet.uav[6] utilizationFail 0
scalar OsgEarthNet.uav[6] simulationTime 259200
scalar OsgEarthNet.uav[7] utilizationSecMission 26777.747159706
scalar OsgEarthNet.uav[7] utilizationSecMaintenance 15888.886497127
scalar OsgEarthNet.uav[7] utilizationSecCharge 156536.05026586
scalar OsgEarthNet.uav[7] utilizationSecIdle 59997.315077309
scalar OsgEarthNet.uav[7] utilizationEnergyMission 123124.71260834
scalar OsgEarthNet.uav[7] utilizationEnergyMaintenance 74749.092132568
scalar OsgEarthNet.uav[7] utilizationEnergyCharge 196456.8425293
scalar OsgEarthNet.uav[7] utilizationEnergyOverdrawMission 0
scalar OsgEarthNet.uav[7] utilizationEnergyOverdrawMaintenance 0
scalar OsgEarthNet.uav[7] utilizationCountMissions 43
scalar OsgEarthNet.uav[7] utilizationCountManeuversMission 435
scalar OsgEarthNet.uav[7] utilizationCountManeuversMaintenance 86
scalar OsgEarthNet.uav[7] utilizationCountChargeState 43
scalar OsgEarthNet.uav[7] utilizationCountOverdrawnAfterMission 0
scalar OsgEarthNet.uav[7] utilizationCountIdleState 43
scalar OsgEarthNet.uav[7] utilizationFail 0
scalar OsgEarthNet.uav[7] simulationTime 259200
scalar OsgEarthNet.uav[8] utilizationSecMission 28720.308822465
scalar OsgEarthNet.uav[8] utilizationSecMaintenance 14557.266321589
scalar OsgEarthNet.uav[8] utilizationSecCharge 158325.71849354
scalar OsgEarthNet.uav[8] utilizationSecIdle 57596.705362404
scalar OsgEarthNet.uav[8] utilizationEnergyMission 132857.87417603
scalar OsgEarthNet.uav[8] utilizationEnergyMaintenance 68377.786655426
scalar OsgEarthNet.uav[8] utilizationEnergyCharge 199668.78198242
scalar OsgEarthNet.uav[8] utilizationEnergyOverdrawMission 0
scalar OsgEarthNet.uav[8] utilizationEnergyOverdrawMaintenance 0
scalar OsgEarthNet.uav[8] utilizationCountMissions 43
scalar OsgEarthNet.uav[8] utilizationCountManeuversMission 477
scalar OsgEarthNet.uav[8] utilizationCountManeuversMaintenance 86
scalar OsgEarthNet.uav[8] utilizationCountChargeState 43
scalar OsgEarthNet.uav[8] utilizationCountOverdrawnAfterMission 0
scalar OsgEarthNet.uav[8] utilizationCountIdleState 43
scalar OsgEarthNet.uav[8] utilizationFail 0
scalar OsgEarthNet.uav[8] simulationTime 259200
scalar OsgEarthNet.uav[9] utilizationSecMission 545.05972348896
scalar OsgEarthNet.uav[9] utilizationSecMaintenance 427.36308650536
scalar OsgEarthNet.uav[9] utilizationSecCharge 3560
scalar OsgEarthNet.uav[9] utilizationSecIdle 254667.57619001
scalar OsgEarthNet.uav[9] utilizationEnergyMission 2517.8880004883
scalar OsgEarthNet.uav[9] utilizationEnergyMaintenance 2036.0624923706
scalar OsgEarthNet.uav[9] utilizationEnergyCharge 4411.0297851562
scalar OsgEarthNet.uav[9] utilizationEnergyOverdrawMission 0
scalar OsgEarthNet.uav[9] utilizationEnergyOverdrawMaintenance 0
scalar OsgEarthNet.uav[9] utilizationCountMissions 1
scalar OsgEarthNet.uav[9] utilizationCountManeuversMission 9
scalar OsgEarthNet.uav[9] utilizationCountManeuversMaintenance 2
scalar OsgEarthNet.uav[9] utilizationCountChargeState 1
scalar OsgEarthNet.uav[9] utilizationCountOverdrawnAfterMission 0
scalar OsgEarthNet.uav[9] utilizationCountIdleState 2
scalar OsgEarthNet.uav[9] utilizationFail 0
scalar OsgEarthNet.uav[9] simulationTime 259200
scalar OsgEarthNet.uav[10] utilizationSecMission 28411.019845389
scalar OsgEarthNet.uav[10] utilizationSecMaintenance 16050.505917457
scalar OsgEarthNet.uav[10] utilizationSecCharge 164045.08109384
scalar OsgEarthNet.uav[10] utilizationSecIdle 50693.392143318
scalar OsgEarthNet.uav[10] utilizationEnergyMission 131513.80552673
scalar OsgEarthNet.uav[10] utilizationEnergyMaintenance 75859.57882309
scalar OsgEarthNet.uav[10] utilizationEnergyCharge 207069.8359375
scalar OsgEarthNet.uav[10] utilizationEnergyOverdrawMission 0
scalar OsgEarthNet.uav[10] utilizationEnergyOverdrawMaintenance 0
scalar OsgEarthNet.uav[10] utilizationCountMissions 44
scalar OsgEarthNet.uav[10] utilizationCountManeuversMission 458
scalar OsgEarthNet.uav[10] utilizationCountManeuversMaintenance 88
scalar OsgEarthNet.uav[10] utilizationCountChargeState 44
scalar OsgEarthNet.uav[10] utilizationCountOverdrawnAfterMission 0
scalar OsgEarthNet.uav[10] utilizationCountIdleState 44
scalar OsgEarthNet.uav[10] utilizationFail 0
scalar OsgEarthNet.uav[10] simulationTime 259200
scalar OsgEarthNet.uav[11] utilizationSecMission 29695.92220496
scalar OsgEarthNet.uav[11] utilizationSecMaintenance 15674.126438558
scalar OsgEarthNet.uav[11] utilizationSecCharge 166035.24716869
scalar OsgEarthNet.uav[11] utilizationSecIdle 47794.703187793
scalar OsgEarthNet.uav[11] utilizationEnergyMission 136526.2641449
scalar OsgEarthNet.uav[11] utilizationEnergyMaintenance 73909.934379578
scalar OsgEarthNet.uav[11] utilizationEnergyCharge 209591.75390625
scalar OsgEarthNet.uav[11] utilizationEnergyOverdrawMission 0
scalar OsgEarthNet.uav[11] utilizationEnergyOverdrawMaintenance 0
scalar OsgEarthNet.uav[11] utilizationCountMissions 45
scalar OsgEarthNet.uav[11] utilizationCountManeuversMission 482
scalar OsgEarthNet.uav[11] utilizationCountManeuversMaintenance 90
scalar OsgEarthNet.uav[11] utilizationCountChargeState 45
scalar OsgEarthNet.uav[11] utilizationCountOverdrawnAfterMission 0
scalar OsgEarthNet.uav[11] utilizationCountIdleState 45
scalar OsgEarthNet.uav[11] utilizationFail 0
scalar OsgEarthNet.uav[11] simulationTime 259200
scalar OsgEarthNet.uav[12] utilizationSecMission 31981.802010221
scalar OsgEarthNet.uav[12] utilizationSecMaintenance 13075.135449218
scalar OsgEarthNet.uav[12] utilizationSecCharge 165163.88643015
scalar OsgEarthNet.uav[12] utilizationSecIdle 48979.175110411
scalar OsgEarthNet.uav[12] utilizationEnergyMission 147306.81757355
scalar OsgEarthNet.uav[12] utilizationEnergyMaintenance 61304.454677582
scalar OsgEarthNet.uav[12] utilizationEnergyCharge 207597.97949219
scalar OsgEarthNet.uav[12] utilizationEnergyOverdrawMission 0
scalar OsgEarthNet.uav[12] utilizationEnergyOverdrawMaintenance 0
scalar OsgEarthNet.uav[12] utilizationCountMissions 45
scalar OsgEarthNet.uav[12] utilizationCountManeuversMission 526
scalar OsgEarthNet.uav[12] utilizationCountManeuversMaintenance 90
scalar OsgEarthNet.uav[12] utilizationCountChargeState 45
scalar OsgEarthNet.uav[12] utilizationCountOverdrawnAfterMission 0
scalar OsgEarthNet.uav[12] utilizationCountIdleState 45
scalar OsgEarthNet.uav[12] utilizationFail 0
scalar OsgEarthNet.uav[12] simulationTime 259200
scalar OsgEarthNet.uav[13] utilizationSecMission 31831.561466105
scalar OsgEarthNet.uav[13] utilizationSecMaintenance 15060.44877906
scalar OsgEarthNet.uav[13] utilizationSecCharge 173555.98875484
scalar OsgEarthNet.uav[13] utilizationSecIdle 38752
scalar OsgEarthNet.uav[13] utilizationEnergyMission 146030.89445496
scalar OsgEarthNet.uav[13] utilizationEnergyMaintenance 71940.833545685
scalar OsgEarthNet.uav[13] utilizationEnergyCharge 218239.00146484
scalar OsgEarthNet.uav[13] utilizationEnergyOverdrawMission 0
scalar OsgEarthNet.uav[13] utilizationEnergyOverdrawMaintenance 0
scalar OsgEarthNet.uav[13] utilizationCountMissions 47
scalar OsgEarthNet.uav[13] utilizationCountManeuversMission 514
scalar OsgEarthNet.uav[13] utilizationCountManeuversMaintenance 93
scalar OsgEarthNet.uav[13] utilizationCountChargeState 47
scalar OsgEarthNet.uav[13] utilizationCountOverdrawnAfterMission 0
scalar OsgEarthNet.uav[13] utilizationCountIdleState 47
scalar OsgEarthNet.uav[13] utilizationFail 0
scalar OsgEarthNet.uav[13] simulationTime 259200
scalar OsgEarthNet.uav[14] utilizationSecMission 27127.712963464
scalar OsgEarthNet.uav[14] utilizationSecMaintenance 15840.792233914
scalar OsgEarthNet.uav[14] utilizationSecCharge 157795.14753924
scalar OsgEarthNet.uav[14] utilizationSecIdle 58436.34626338
scalar OsgEarthNet.uav[14] utilizationEnergyMission 125489.49619293
scalar OsgEarthNet.uav[14] utilizationEnergyMaintenance 73907.757144928
scalar OsgEarthNet.uav[14] utilizationEnergyCharge 198725.41357422
scalar OsgEarthNet.uav[14] utilizationEnergyOverdrawMission 0
scalar OsgEarthNet.uav[14] utilizationEnergyOverdrawMaintenance 0
scalar OsgEarthNet.uav[14] utilizationCountMissions 43
scalar OsgEarthNet.uav[14] utilizationCountManeuversMission 446
scalar OsgEarthNet.uav[14] utilizationCountManeuversMaintenance 86
scalar OsgEarthNet.uav[14] utilizationCountChargeState 43
scalar OsgEarthNet.uav[14] utilizationCountOverdrawnAfterMission 0
scalar OsgEarthNet.uav[14] utilizationCountIdleState 43
scalar OsgEarthNet.uav[14] utilizationFail 0
scalar OsgEarthNet.uav[14] simulationTime 259200
scalar OsgEarthNet.uav[15] utilizationSecMission 29105.059238391
scalar OsgEarthNet.uav[15] utilizationSecMaintenance 14359.923103854
scalar OsgEarthNet.uav[15] utilizationSecCharge 159440
scalar OsgEarthNet.uav[15] utilizationSecIdle 56295.016657755
scalar OsgEarthNet.uav[15] utilizationEnergyMission 132553.26216888
scalar OsgEarthNet.uav[15] utilizationEnergyMaintenance 67089.096729279
scalar OsgEarthNet.uav[15] utilizationEnergyCharge 199642.4765625
scalar OsgEarthNet.uav[15] utilizationEnergyOverdrawMission 0
scalar OsgEarthNet.uav[15] utilizationEnergyOverdrawMaintenance 0
scalar OsgEarthNet.uav[15] utilizationCountMissions 43
scalar OsgEarthNet.uav[15] utilizationCountManeuversMission 474
scalar OsgEarthNet.uav[15] utilizationCountManeuversMaintenance 86
scalar OsgEarthNet.uav[15] utilizationCountChargeState 43
scalar OsgEarthNet.uav[15] utilizationCountOverdrawnAfterMission 0
scalar OsgEarthNet.uav[15] utilizationCountIdleState 44
scalar OsgEarthNet.uav[15] utilizationFail 0
scalar OsgEarthNet.uav[15] simulationTime 259200
scalar OsgEarthNet.uav[16] utilizationSecMission 29611.598977915
scalar OsgEarthNet.uav[16] utilizationSecMaintenance 15599.153624447
scalar OsgEarthNet.uav[16] utilizationSecCharge 167180
scalar OsgEarthNet.uav[16] utilizationSecIdle 46809.246397638
scalar OsgEarthNet.uav[16] utilizationEnergyMission 137473.07260895
scalar OsgEarthNet.uav[16] utilizationEnergyMaintenance 72400.324039459
scalar OsgEarthNet.uav[16] utilizationEnergyCharge 209820.39746094
scalar OsgEarthNet.uav[16] utilizationEnergyOverdrawMission 0
scalar OsgEarthNet.uav[16] utilizationEnergyOverdrawMaintenance 0
scalar OsgEarthNet.uav[16] utilizationCountMissions 45
scalar OsgEarthNet.uav[16] utilizationCountManeuversMission 470
scalar OsgEarthNet.uav[16] utilizationCountManeuversMaintenance 90
scalar OsgEarthNet.uav[16] utilizationCountChargeState 45
scalar OsgEarthNet.uav[16] utilizationCountOverdrawnAfterMission 0
scalar OsgEarthNet.uav[16] utilizationCountIdleState 46
scalar OsgEarthNet.uav[16] utilizationFail 0
scalar OsgEarthNet.uav[16] simulationTime 259200
scalar OsgEarthNet.uav[17] utilizationSecMission 30279.608521494
scalar OsgEarthNet.uav[17] utilizationSecMaintenance 15473.420849409
scalar OsgEarthNet.uav[17] utilizationSecCharge 167723.76572134
scalar OsgEarthNet.uav[17] utilizationSecIdle 45723.20390776
scalar OsgEarthNet.uav[17] utilizationEnergyMission 140250.59121323
scalar OsgEarthNet.uav[17] utilizationEnergyMaintenance 72897.08990097
scalar OsgEarthNet.uav[17] utilizationEnergyCharge 210628.3894043
scalar OsgEarthNet.uav[17] utilizationEnergyOverdrawMission 0
scalar OsgEarthNet.uav[17] utilizationEnergyOverdrawMaintenance 0
scalar OsgEarthNet.uav[17] utilizationCountMissions 46
scalar OsgEarthNet.uav[17] utilizationCountManeuversMission 499
scalar OsgEarthNet.uav[17] utilizationCountManeuversMaintenance 92
scalar OsgEarthNet.uav[17] utilizationCountChargeState 46
scalar OsgEarthNet.uav[17] utilizationCountOverdrawnAfterMission 0
scalar OsgEarthNet.uav[17] utilizationCountIdleState 46
scalar OsgEarthNet.uav[17] utilizationFail 0
scalar OsgEarthNet.uav[17] simulationTime 259200
scalar OsgEarthNet.uav[18] utilizationSecMission 28928.413110552
scalar OsgEarthNet.uav[18] utilizationSecMaintenance 14546.367009087
scalar OsgEarthNet.uav[18] utilizationSecCharge 160008.86865954
scalar OsgEarthNet.uav[18] utilizationSecIdle 55716.350220821
scalar OsgEarthNet.uav[18] utilizationEnergyMission 135404.50447083
scalar OsgEarthNet.uav[18] utilizationEnergyMaintenance 67674.664066315
scalar OsgEarthNet.uav[18] utilizationEnergyCharge 202464.58544922
scalar OsgEarthNet.uav[18] utilizationEnergyOverdrawMission 0
scalar OsgEarthNet.uav[18] utilizationEnergyOverdrawMaintenance 0
scalar OsgEarthNet.uav[18] utilizationCountMissions 43
scalar OsgEarthNet.uav[18] utilizationCountManeuversMission 481
scalar OsgEarthNet.uav[18] utilizationCountManeuversMaintenance 86
scalar OsgEarthNet.uav[18] utilizationCountChargeState 43
scalar OsgEarthNet.uav[18] utilizationCountOverdrawnAfterMission 0
scalar OsgEarthNet.uav[18] utilizationCountIdleState 43
scalar OsgEarthNet.uav[18] utilizationFail 0
scalar OsgEarthNet.uav[18] simulationTime 259200
scalar OsgEarthNet.uav[19] utilizationSecMission 8839.2707278111
scalar OsgEarthNet.uav[19] utilizationSecMaintenance 3290.9849432198
scalar OsgEarthNet.uav[19] utilizationSecCharge 44590
scalar OsgEarthNet.uav[19] utilizationSecIdle 202479.74332897
scalar OsgEarthNet.uav[19] utilizationEnergyMission 40918.944023132
scalar OsgEarthNet.uav[19] utilizationEnergyMaintenance 15250.596172333
scalar OsgEarthNet.uav[19] utilizationEnergyCharge 55874.813964844
scalar OsgEarthNet.uav[19] utilizationEnergyOverdrawMission 0
scalar OsgEarthNet.uav[19] utilizationEnergyOverdrawMaintenance 0
scalar OsgEarthNet.uav[19] utilizationCountMissions 12
scalar OsgEarthNet.uav[19] utilizationCountManeuversMission 152
scalar OsgEarthNet.uav[19] utilizationCountManeuversMaintenance 24
scalar OsgEarthNet.uav[19] utilizationCountChargeState 12
scalar OsgEarthNet.uav[19] utilizationCountOverdrawnAfterMission 0
scalar OsgEarthNet.uav[19] utilizationCountIdleState 13
scalar OsgEarthNet.uav[19] utilizationFail 0
scalar OsgEarthNet.uav[19] simulationTime 259200
scalar OsgEarthNet.uav[20] utilizationSecMission 10978.089187978
scalar OsgEarthNet.uav[20] utilizationSecMaintenance 4498.139131266
scalar OsgEarthNet.uav[20] utilizationSecCharge 56290
scalar OsgEarthNet.uav[20] utilizationSecIdle 187433.77068076
scalar OsgEarthNet.uav[20] utilizationEnergyMission 50149.371086121
scalar OsgEarthNet.uav[20] utilizationEnergyMaintenance 21010.52803421
scalar OsgEarthNet.uav[20] utilizationEnergyCharge 70779.956054688
scalar OsgEarthNet.uav[20] utilizationEnergyOverdrawMission 0
scalar OsgEarthNet.uav[20] utilizationEnergyOverdrawMaintenance 0
scalar OsgEarthNet.uav[20] utilizationCountMissions 15
scalar OsgEarthNet.uav[20] utilizationCountManeuversMission 177
scalar OsgEarthNet.uav[20] utilizationCountManeuversMaintenance 30
scalar OsgEarthNet.uav[20] utilizationCountChargeState 15
scalar OsgEarthNet.uav[20] utilizationCountOverdrawnAfterMission 0
scalar OsgEarthNet.uav[20] utilizationCountIdleState 16
scalar OsgEarthNet.uav[20] utilizationFail 0
scalar OsgEarthNet.uav[20] simulationTime 259200
scalar OsgEarthNet.uav[21] utilizationSecMission 1300.083610011
scalar OsgEarthNet.uav[21] utilizationSecMaintenance 748.24339118275
scalar OsgEarthNet.uav[21] utilizationSecCharge 7470
scalar OsgEarthNet.uav[21] utilizationSecIdle 249681.67199881
scalar OsgEarthNet.uav[21] utilizationEnergyMission 5976.2345275879
scalar OsgEarthNet.uav[21] utilizationEnergyMaintenance 3422.6269760132
scalar OsgEarthNet.uav[21] utilizationEnergyCharge 9405.0249023438
scalar OsgEarthNet.uav[21] utilizationEnergyOverdrawMission 0
scalar OsgEarthNet.uav[21] utilizationEnergyOverdrawMaintenance 0
scalar OsgEarthNet.uav[21] utilizationCountMissions 2
scalar OsgEarthNet.uav[21] utilizationCountManeuversMission 22
scalar OsgEarthNet.uav[21] utilizationCountManeuversMaintenance 4
scalar OsgEarthNet.uav[21] utilizationCountChargeState 2
scalar OsgEarthNet.uav[21] utilizationCountOverdrawnAfterMission 0
scalar OsgEarthNet.uav[21] utilizationCountIdleState 3
scalar OsgEarthNet.uav[21] utilizationFail 0
scalar OsgEarthNet.uav[21] simulationTime 259200
scalar OsgEarthNet.uav[22] utilizationSecMission 30417.475771131
scalar OsgEarthNet.uav[22] utilizationSecMaintenance 15912.373419895
scalar OsgEarthNet.uav[22] utilizationSecCharge 171198.14980897
scalar OsgEarthNet.uav[22] utilizationSecIdle 41672
scalar OsgEarthNet.uav[22] utilizationEnergyMission 140217.2984593
scalar OsgEarthNet.uav[22] utilizationEnergyMaintenance 73986.302238464
scalar OsgEarthNet.uav[22] utilizationEnergyCharge 214779.41723633
scalar OsgEarthNet.uav[22] utilizationEnergyOverdrawMission 0
scalar OsgEarthNet.uav[22] utilizationEnergyOverdrawMaintenance 0
scalar OsgEarthNet.uav[22] utilizationCountMissions 46
scalar OsgEarthNet.uav[22] utilizationCountManeuversMission 504
scalar OsgEarthNet.uav[22] utilizationCountManeuversMaintenance 91
scalar OsgEarthNet.uav[22] utilizationCountChargeState 46
scalar OsgEarthNet.uav[22] utilizationCountOverdrawnAfterMission 0
scalar OsgEarthNet.uav[22] utilizationCountIdleState 46
scalar OsgEarthNet.uav[22] utilizationFail 0
scalar OsgEarthNet.uav[22] simulationTime 259200
scalar OsgEarthNet.uav[23] utilizationSecMission 21733.964203155
scalar OsgEarthNet.uav[23] utilizationSecMaintenance 11227.796224158
scalar OsgEarthNet.uav[23] utilizationSecCharge 122650
scalar OsgEarthNet.uav[23] utilizationSecIdle 103588.23857269
scalar OsgEarthNet.uav[23] utilizationEnergyMission 101286.20859528
scalar OsgEarthNet.uav[23] utilizationEnergyMaintenance 52587.295944214
scalar OsgEarthNet.uav[23] utilizationEnergyCharge 153846.69238281
scalar OsgEarthNet.uav[23] utilizationEnergyOverdrawMission 0
scalar OsgEarthNet.uav[23] utilizationEnergyOverdrawMaintenance 0
scalar OsgEarthNet.uav[23] utilizationCountMissions 33
scalar OsgEarthNet.uav[23] utilizationCountManeuversMission 359
scalar OsgEarthNet.uav[23] utilizationCountManeuversMaintenance 66
scalar OsgEarthNet.uav[23] utilizationCountChargeState 33
scalar OsgEarthNet.uav[23] utilizationCountOverdrawnAfterMission 0
scalar OsgEarthNet.uav[23] utilizationCountIdleState 34
scalar OsgEarthNet.uav[23] utilizationFail 0
scalar OsgEarthNet.uav[23] simulationTime 259200
scalar OsgEarthNet.uav[24] utilizationSecMission 30123.091881311
scalar OsgEarthNet.uav[24] utilizationSecMaintenance 14403.14810596
scalar OsgEarthNet.uav[24] utilizationSecCharge 163560
scalar OsgEarthNet.uav[24] utilizationSecIdle 51113.759012729
scalar OsgEarthNet.uav[24] utilizationEnergyMission 139098.05557251
scalar OsgEarthNet.uav[24] utilizationEnergyMaintenance 67137.824592402
scalar OsgEarthNet.uav[24] utilizationEnergyCharge 205122.21289062
scalar OsgEarthNet.uav[24] utilizationEnergyOverdrawMission 0
scalar OsgEarthNet.uav[24] utilizationEnergyOverdrawMaintenance 0
scalar OsgEarthNet.uav[24] utilizationCountMissions 44
scalar OsgEarthNet.uav[24] utilizationCountManeuversMission 496
scalar OsgEarthNet.uav[24] utilizationCountManeuversMaintenance 89
scalar OsgEarthNet.uav[24] utilizationCountChargeState 44
scalar OsgEarthNet.uav[24] utilizationCountOverdrawnAfterMission 0
scalar OsgEarthNet.uav[24] utilizationCountIdleState 45
scalar OsgEarthNet.uav[24] utilizationFail 0
scalar OsgEarthNet.uav[24] simulationTime 259200
scalar OsgEarthNet.uav[25] utilizationSecMission 24761.393912676
scalar OsgEarthNet.uav[25] utilizationSecMaintenance 12812.184112219
scalar OsgEarthNet.uav[25] utilizationSecCharge 136512.89564387
scalar OsgEarthNet.uav[25] utilizationSecIdle 85113.525331232
scalar OsgEarthNet.uav[25] utilizationEnergyMission 115659.70751953
scalar OsgEarthNet.uav[25] utilizationEnergyMaintenance 59774.065822601
scalar OsgEarthNet.uav[25] utilizationEnergyCharge 172137.54467773
scalar OsgEarthNet.uav[25] utilizationEnergyOverdrawMission 0
scalar OsgEarthNet.uav[25] utilizationEnergyOverdrawMaintenance 0
scalar OsgEarthNet.uav[25] utilizationCountMissions 37
scalar OsgEarthNet.uav[25] utilizationCountManeuversMission 410
scalar OsgEarthNet.uav[25] utilizationCountManeuversMaintenance 74
scalar OsgEarthNet.uav[25] utilizationCountChargeState 37
scalar OsgEarthNet.uav[25] utilizationCountOverdrawnAfterMission 0
scalar OsgEarthNet.uav[25] utilizationCountIdleState 37
scalar OsgEarthNet.uav[25] utilizationFail 0
scalar OsgEarthNet.uav[25] simulationTime 259200
scalar OsgEarthNet.uav[26] utilizationSecMission 18717.370879946
scalar OsgEarthNet.uav[26] utilizationSecMaintenance 9644.8559680343
scalar OsgEarthNet.uav[26] utilizationSecCharge 101217.52725441
scalar OsgEarthNet.uav[26] utilizationSecIdle 129620.24489761
scalar OsgEarthNet.uav[26] utilizationEnergyMission 86708.717746735
scalar OsgEarthNet.uav[26] utilizationEnergyMaintenance 44531.052700043
scalar OsgEarthNet.uav[26] utilizationEnergyCharge 127249.50912476
scalar OsgEarthNet.uav[26] utilizationEnergyOverdrawMission 0
scalar OsgEarthNet.uav[26] utilizationEnergyOverdrawMaintenance 0
scalar OsgEarthNet.uav[26] utilizationCountMissions 28
scalar OsgEarthNet.uav[26] utilizationCountManeuversMission 309
scalar OsgEarthNet.uav[26] utilizationCountManeuversMaintenance 56
scalar OsgEarthNet.uav[26] utilizationCountChargeState 28
scalar OsgEarthNet.uav[26] utilizationCountOverdrawnAfterMission 0
scalar OsgEarthNet.uav[26] utilizationCountIdleState 28
scalar OsgEarthNet.uav[26] utilizationFail 0
scalar OsgEarthNet.uav[26] simulationTime 259200
scalar OsgEarthNet.uav[27] utilizationSecMission 30876.552031031
scalar OsgEarthNet.uav[27] utilizationSecMaintenance 14507.441728795
scalar OsgEarthNet.uav[27] utilizationSecCharge 167440
scalar OsgEarthNet.uav[27] utilizationSecIdle 46376.005240173
scalar OsgEarthNet.uav[27] utilizationEnergyMission 143518.8124402
scalar OsgEarthNet.uav[27] utilizationEnergyMaintenance 68042.895118713
scalar OsgEarthNet.uav[27] utilizationEnergyCharge 210266.43896484
scalar OsgEarthNet.uav[27] utilizationEnergyOverdrawMission 0
scalar OsgEarthNet.uav[27] utilizationEnergyOverdrawMaintenance 0
scalar OsgEarthNet.uav[27] utilizationCountMissions 45
scalar OsgEarthNet.uav[27] utilizationCountManeuversMission 493
scalar OsgEarthNet.uav[27] utilizationCountManeuversMaintenance 91
scalar OsgEarthNet.uav[27] utilizationCountChargeState 45
scalar OsgEarthNet.uav[27] utilizationCountOverdrawnAfterMission 0
scalar OsgEarthNet.uav[27] utilizationCountIdleState 46
scalar OsgEarthNet.uav[27] utilizationFail 0
scalar OsgEarthNet.uav[27] simulationTime 259200
scalar OsgEarthNet.uav[28] utilizationSecMission 29402.618602736
scalar OsgEarthNet.uav[28] utilizationSecMaintenance 16098.98494791
scalar OsgEarthNet.uav[28] utilizationSecCharge 169760
scalar OsgEarthNet.uav[28] utilizationSecIdle 43938.395449354
scalar OsgEarthNet.uav[28] utilizationEnergyMission 136586.68308258
scalar OsgEarthNet.uav[28] utilizationEnergyMaintenance 75630.391120911
scalar OsgEarthNet.uav[28] utilizationEnergyCharge 212293.01123047
scalar OsgEarthNet.uav[28] utilizationEnergyOverdrawMission 0
scalar OsgEarthNet.uav[28] utilizationEnergyOverdrawMaintenance 0
scalar OsgEarthNet.uav[28] utilizationCountMissions 46
scalar OsgEarthNet.uav[28] utilizationCountManeuversMission 475
scalar OsgEarthNet.uav[28] utilizationCountManeuversMaintenance 92
scalar OsgEarthNet.uav[28] utilizationCountChargeState 46
scalar OsgEarthNet.uav[28] utilizationCountOverdrawnAfterMission 0
scalar OsgEarthNet.uav[28] utilizationCountIdleState 47
scalar OsgEarthNet.uav[28] utilizationFail 0
scalar OsgEarthNet.uav[28] simulationTime 259200
scalar OsgEarthNet.uav[29] utilizationSecMission 26282.777562012
scalar OsgEarthNet.uav[29] utilizationSecMaintenance 12118.316208985
scalar OsgEarthNet.uav[29] utilizationSecCharge 141066.45732574
scalar OsgEarthNet.uav[29] utilizationSecIdle 79732.447903263
scalar OsgEarthNet.uav[29] utilizationEnergyMission 121863.40755463
scalar OsgEarthNet.uav[29] utilizationEnergyMaintenance 56304.451667786
scalar OsgEarthNet.uav[29] utilizationEnergyCharge 177825.51269531
scalar OsgEarthNet.uav[29] utilizationEnergyOverdrawMission 0
scalar OsgEarthNet.uav[29] utilizationEnergyOverdrawMaintenance 0
scalar OsgEarthNet.uav[29] utilizationCountMissions 38
scalar OsgEarthNet.uav[29] utilizationCountManeuversMission 429
scalar OsgEarthNet.uav[29] utilizationCountManeuversMaintenance 76
scalar OsgEarthNet.uav[29] utilizationCountChargeState 38
scalar OsgEarthNet.uav[29] utilizationCountOverdrawnAfterMission 0
scalar OsgEarthNet.uav[29] utilizationCountIdleState 38
scalar OsgEarthNet.uav[29] utilizationFail 0
scalar OsgEarthNet.uav[29] simulationTime 259200
scalar OsgEarthNet.uav[30] utilizationSecMission 4070.3389329338
scalar OsgEarthNet.uav[30] utilizationSecMaintenance 1932.26943209
scalar OsgEarthNet.uav[30] utilizationSecCharge 21720
scalar OsgEarthNet.uav[30] utilizationSecIdle 231477.39063498
scalar OsgEarthNet.uav[30] utilizationEnergyMission 18150.990081787
scalar OsgEarthNet.uav[30] utilizationEnergyMaintenance 8836.818031311
scalar OsgEarthNet.uav[30] utilizationEnergyCharge 26853.754882812
scalar OsgEarthNet.uav[30] utilizationEnergyOverdrawMission 0
scalar OsgEarthNet.uav[30] utilizationEnergyOverdrawMaintenance 0
scalar OsgEarthNet.uav[30] utilizationCountMissions 6
scalar OsgEarthNet.uav[30] utilizationCountManeuversMission 65
scalar OsgEarthNet.uav[30] utilizationCountManeuversMaintenance 12
scalar OsgEarthNet.uav[30] utilizationCountChargeState 6
scalar OsgEarthNet.uav[30] utilizationCountOverdrawnAfterMission 0
scalar OsgEarthNet.uav[30] utilizationCountIdleState 7
scalar OsgEarthNet.uav[30] utilizationFail 0
scalar OsgEarthNet.uav[30] simulationTime 259200
scalar OsgEarthNet.uav[31] utilizationSecMission 29839.680179752
scalar OsgEarthNet.uav[31] utilizationSecMaintenance 13330.552688277
scalar OsgEarthNet.uav[31] utilizationSecCharge 159000
scalar OsgEarthNet.uav[31] utilizationSecIdle 57029.766131971
scalar OsgEarthNet.uav[31] utilizationEnergyMission 136927.32001495
scalar OsgEarthNet.uav[31] utilizationEnergyMaintenance 62325.773593903
scalar OsgEarthNet.uav[31] utilizationEnergyCharge 199008.16943359
scalar OsgEarthNet.uav[31] utilizationEnergyOverdrawMission 0
scalar OsgEarthNet.uav[31] utilizationEnergyOverdrawMaintenance 0
scalar OsgEarthNet.uav[31] utilizationCountMissions 43
scalar OsgEarthNet.uav[31] utilizationCountManeuversMission 486
scalar OsgEarthNet.uav[31] utilizationCountManeuversMaintenance 86
scalar OsgEarthNet.uav[31] utilizationCountChargeState 43
scalar OsgEarthNet.uav[31] utilizationCountOverdrawnAfterMission 0
scalar OsgEarthNet.uav[31] utilizationCountIdleState 44
scalar OsgEarthNet.uav[31] utilizationFail 0
scalar OsgEarthNet.uav[31] simulationTime 259200
scalar OsgEarthNet.uav[32] utilizationSecMission 27002.540676155
scalar OsgEarthNet.uav[32] utilizationSecMaintenance 16144.892643349
scalar OsgEarthNet.uav[32] utilizationSecCharge 159316.54240809
scalar OsgEarthNet.uav[32] utilizationSecIdle 56736.023272408
scalar OsgEarthNet.uav[32] utilizationEnergyMission 125375.66511536
scalar OsgEarthNet.uav[32] utilizationEnergyMaintenance 75985.927658081
scalar OsgEarthNet.uav[32] utilizationEnergyCharge 201053.37353516
scalar OsgEarthNet.uav[32] utilizationEnergyOverdrawMission 0
scalar OsgEarthNet.uav[32] utilizationEnergyOverdrawMaintenance 0
scalar OsgEarthNet.uav[32] utilizationCountMissions 43
scalar OsgEarthNet.uav[32] utilizationCountManeuversMission 460
scalar OsgEarthNet.uav[32] utilizationCountManeuversMaintenance 86
scalar OsgEarthNet.uav[32] utilizationCountChargeState 43
scalar OsgEarthNet.uav[32] utilizationCountOverdrawnAfterMission 0
scalar OsgEarthNet.uav[32] utilizationCountIdleState 43
scalar OsgEarthNet.uav[32] utilizationFail 0
scalar OsgEarthNet.uav[32] simulationTime 259200
scalar OsgEarthNet.uav[33] utilizationSecMission 27317.781593123
scalar OsgEarthNet.uav[33] utilizationSecMaintenance 12556.084035743
scalar OsgEarthNet.uav[33] utilizationSecCharge 143950
scalar OsgEarthNet.uav[33] utilizationSecIdle 75376.133371134
scalar OsgEarthNet.uav[33] utilizationEnergyMission 124568.7882896
scalar OsgEarthNet.uav[33] utilizationEnergyMaintenance 59035.287677765
scalar OsgEarthNet.uav[33] utilizationEnergyCharge 180070.96386719
scalar OsgEarthNet.uav[33] utilizationEnergyOverdrawMission 0
scalar OsgEarthNet.uav[33] utilizationEnergyOverdrawMaintenance 0
scalar OsgEarthNet.uav[33] utilizationCountMissions 39
scalar OsgEarthNet.uav[33] utilizationCountManeuversMission 438
scalar OsgEarthNet.uav[33] utilizationCountManeuversMaintenance 79
scalar OsgEarthNet.uav[33] utilizationCountChargeState 39
scalar OsgEarthNet.uav[33] utilizationCountOverdrawnAfterMission 0
scalar OsgEarthNet.uav[33] utilizationCountIdleState 40
scalar OsgEarthNet.uav[33] utilizationFail 0
scalar OsgEarthNet.uav[33] simulationTime 259200
scalar OsgEarthNet.uav[34] utilizationSecMission 31356.536424651
scalar OsgEarthNet.uav[34] utilizationSecMaintenance 13682.848098082
scalar OsgEarthNet.uav[34] utilizationSecCharge 165938.14235989
scalar OsgEarthNet.uav[34] utilizationSecIdle 48222.472117382
scalar OsgEarthNet.uav[34] utilizationEnergyMission 145860.70696259
scalar OsgEarthNet.uav[34] utilizationEnergyMaintenance 65204.318370819
scalar OsgEarthNet.uav[34] utilizationEnergyCharge 209364.50439453
scalar OsgEarthNet.uav[34] utilizationEnergyOverdrawMission 0
scalar OsgEarthNet.uav[34] utilizationEnergyOverdrawMaintenance 0
scalar OsgEarthNet.uav[34] utilizationCountMissions 45
scalar OsgEarthNet.uav[34] utilizationCountManeuversMission 517
scalar OsgEarthNet.uav[34] utilizationCountManeuversMaintenance 90
scalar OsgEarthNet.uav[34] utilizationCountChargeState 45
scalar OsgEarthNet.uav[34] utilizationCountOverdrawnAfterMission 0
scalar OsgEarthNet.uav[34] utilizationCountIdleState 45
scalar OsgEarthNet.uav[34] utilizationFail 0
scalar OsgEarthNet.uav[34] simulationTime 259200
scalar OsgEarthNet.uav[35] utilizationSecMission 30408.26406077
scalar OsgEarthNet.uav[35] utilizationSecMaintenance 14055.69884046
scalar OsgEarthNet.uav[35] utilizationSecCharge 162730
scalar OsgEarthNet.uav[35] utilizationSecIdle 52006.036098769
scalar OsgEarthNet.uav[35] utilizationEnergyMission 139533.85902482
scalar OsgEarthNet.uav[35] utilizationEnergyMaintenance 67412.532089233
scalar OsgEarthNet.uav[35] utilizationEnergyCharge 203685.37744141
scalar OsgEarthNet.uav[35] utilizationEnergyOverdrawMission 0
scalar OsgEarthNet.uav[35] utilizationEnergyOverdrawMaintenance 0
scalar OsgEarthNet.uav[35] utilizationCountMissions 44
scalar OsgEarthNet.uav[35] utilizationCountManeuversMission 492
scalar OsgEarthNet.uav[35] utilizationCountManeuversMaintenance 89
scalar OsgEarthNet.uav[35] utilizationCountChargeState 44
scalar OsgEarthNet.uav[35] utilizationCountOverdrawnAfterMission 0
scalar OsgEarthNet.uav[35] utilizationCountIdleState 45
scalar OsgEarthNet.uav[35] utilizationFail 0
scalar OsgEarthNet.uav[35] simulationTime 259200
scalar OsgEarthNet.uav[36] utilizationSecMission 27089.893668165
scalar OsgEarthNet.uav[36] utilizationSecMaintenance 15456.087036323
scalar OsgEarthNet.uav[36] utilizationSecCharge 154540
scalar OsgEarthNet.uav[36] utilizationSecIdle 62114.018295512
scalar OsgEarthNet.uav[36] utilizationEnergyMission 125112.9016571
scalar OsgEarthNet.uav[36] utilizationEnergyMaintenance 72353.131616765
scalar OsgEarthNet.uav[36] utilizationEnergyCharge 193493.41870117
scalar OsgEarthNet.uav[36] utilizationEnergyOverdrawMission 0
scalar OsgEarthNet.uav[36] utilizationEnergyOverdrawMaintenance 0
scalar OsgEarthNet.uav[36] utilizationCountMissions 43
scalar OsgEarthNet.uav[36] utilizationCountManeuversMission 437
scalar OsgEarthNet.uav[36] utilizationCountManeuversMaintenance 86
scalar OsgEarthNet.uav[36] utilizationCountChargeState 42
scalar OsgEarthNet.uav[36] utilizationCountOverdrawnAfterMission 0
scalar OsgEarthNet.uav[36] utilizationCountIdleState 42
scalar OsgEarthNet.uav[36] utilizationFail 0
scalar OsgEarthNet.uav[36] simulationTime 259200
scalar OsgEarthNet.uav[37] utilizationSecMission 28715.405717377
scalar OsgEarthNet.uav[37] utilizationSecMaintenance 15732.536557445
scalar OsgEarthNet.uav[37] utilizationSecCharge 163260
scalar OsgEarthNet.uav[37] utilizationSecIdle 51492.056725178
scalar OsgEarthNet.uav[37] utilizationEnergyMission 131564.75320816
scalar OsgEarthNet.uav[37] utilizationEnergyMaintenance 73829.660060883
scalar OsgEarthNet.uav[37] utilizationEnergyCharge 204853.17236328
scalar OsgEarthNet.uav[37] utilizationEnergyOverdrawMission 0
scalar OsgEarthNet.uav[37] utilizationEnergyOverdrawMaintenance 0
scalar OsgEarthNet.uav[37] utilizationCountMissions 44
scalar OsgEarthNet.uav[37] utilizationCountManeuversMission 471
scalar OsgEarthNet.uav[37] utilizationCountManeuversMaintenance 88
scalar OsgEarthNet.uav[37] utilizationCountChargeState 44
scalar OsgEarthNet.uav[37] utilizationCountOverdrawnAfterMission 0
scalar OsgEarthNet.uav[37] utilizationCountIdleState 45
scalar OsgEarthNet.uav[37] utilizationFail 0
scalar OsgEarthNet.uav[37] simulationTime 259200
scalar OsgEarthNet.uav[38] utilizationSecMission 29122.944681496
scalar OsgEarthNet.uav[38] utilizationSecMaintenance 13480.483857588
scalar OsgEarthNet.uav[38] utilizationSecCharge 157490
scalar OsgEarthNet.uav[38] utilizationSecIdle 59106.570460917
scalar OsgEarthNet.uav[38] utilizationEnergyMission 135306.92743301
scalar OsgEarthNet.uav[38] utilizationEnergyMaintenance 63089.081577301
scalar OsgEarthNet.uav[38] utilizationEnergyCharge 198228.52392578
scalar OsgEarthNet.uav[38] utilizationEnergyOverdrawMission 0
scalar OsgEarthNet.uav[38] utilizationEnergyOverdrawMaintenance 0
scalar OsgEarthNet.uav[38] utilizationCountMissions 42
scalar OsgEarthNet.uav[38] utilizationCountManeuversMission 488
scalar OsgEarthNet.uav[38] utilizationCountManeuversMaintenance 84
scalar OsgEarthNet.uav[38] utilizationCountChargeState 42
scalar OsgEarthNet.uav[38] utilizationCountOverdrawnAfterMission 0
scalar OsgEarthNet.uav[38] utilizationCountIdleState 43
scalar OsgEarthNet.uav[38] utilizationFail 0
scalar OsgEarthNet.uav[38] simulationTime 259200
scalar OsgEarthNet.uav[39] utilizationSecMission 30216.153779482
scalar OsgEarthNet.uav[39] utilizationSecMaintenance 16185.551064748
scalar OsgEarthNet.uav[39] utilizationSecCharge 167584.4156734
scalar OsgEarthNet.uav[39] utilizationSecIdle 45213.878482368
scalar OsgEarthNet.uav[39] utilizationEnergyMission 139654.49576187
scalar OsgEarthNet.uav[39] utilizationEnergyMaintenance 75869.411548614
scalar OsgEarthNet.uav[39] utilizationEnergyCharge 210216.27685547
scalar OsgEarthNet.uav[39] utilizationEnergyOverdrawMission 0
scalar OsgEarthNet.uav[39] utilizationEnergyOverdrawMaintenance 0
scalar OsgEarthNet.uav[39] utilizationCountMissions 46
scalar OsgEarthNet.uav[39] utilizationCountManeuversMission 488
scalar OsgEarthNet.uav[39] utilizationCountManeuversMaintenance 92
scalar OsgEarthNet.uav[39] utilizationCountChargeState 46
scalar OsgEarthNet.uav[39] utilizationCountOverdrawnAfterMission 0
scalar OsgEarthNet.uav[39] utilizationCountIdleState 46
scalar OsgEarthNet.uav[39] utilizationFail 0
scalar OsgEarthNet.uav[39] simulationTime 259200
scalar OsgEarthNet.uav[40] utilizationSecMission 24807.170363769
scalar OsgEarthNet.uav[40] utilizationSecMaintenance 13021.149583732
scalar OsgEarthNet.uav[40] utilizationSecCharge 138090
scalar OsgEarthNet.uav[40] utilizationSecIdle 83281.679052499
scalar OsgEarthNet.uav[40] utilizationEnergyMission 114845.35396421
scalar OsgEarthNet.uav[40] utilizationEnergyMaintenance 60503.397819519
scalar OsgEarthNet.uav[40] utilizationEnergyCharge 173303.02099609
scalar OsgEarthNet.uav[40] utilizationEnergyOverdrawMission 0
scalar OsgEarthNet.uav[40] utilizationEnergyOverdrawMaintenance 0
scalar OsgEarthNet.uav[40] utilizationCountMissions 37
scalar OsgEarthNet.uav[40] utilizationCountManeuversMission 420
scalar OsgEarthNet.uav[40] utilizationCountManeuversMaintenance 75
scalar OsgEarthNet.uav[40] utilizationCountChargeState 37
scalar OsgEarthNet.uav[40] utilizationCountOverdrawnAfterMission 0
scalar OsgEarthNet.uav[40] utilizationCountIdleState 38
scalar OsgEarthNet.uav[40] utilizationFail 0
scalar OsgEarthNet.uav[40] simulationTime 259200
scalar OsgEarthNet.uav[41] utilizationSecMission 31646.47545553
scalar OsgEarthNet.uav[41] utilizationSecMaintenance 14758.757079424
scalar OsgEarthNet.uav[41] utilizationSecCharge 169383.60700007
scalar OsgEarthNet.uav[41] utilizationSecIdle 43411.159464974
scalar OsgEarthNet.uav[41] utilizationEnergyMission 145483.42441559
scalar OsgEarthNet.uav[41] utilizationEnergyMaintenance 69833.401893616
scalar OsgEarthNet.uav[41] utilizationEnergyCharge 213753.54345703
scalar OsgEarthNet.uav[41] utilizationEnergyOverdrawMission 0
scalar OsgEarthNet.uav[41] utilizationEnergyOverdrawMaintenance 0
scalar OsgEarthNet.uav[41] utilizationCountMissions 46
scalar OsgEarthNet.uav[41] utilizationCountManeuversMission 508
scalar OsgEarthNet.uav[41] utilizationCountManeuversMaintenance 92
scalar OsgEarthNet.uav[41] utilizationCountChargeState 46
scalar OsgEarthNet.uav[41] utilizationCountOverdrawnAfterMission 0
scalar OsgEarthNet.uav[41] utilizationCountIdleState 46
scalar OsgEarthNet.uav[41] utilizationFail 0
scalar OsgEarthNet.uav[41] simulationTime 259200
scalar OsgEarthNet.uav[42] utilizationSecMission 28533.485329277
scalar OsgEarthNet.uav[42] utilizationSecMaintenance 14259.636642005
scalar OsgEarthNet.uav[42] utilizationSecCharge 156780
scalar OsgEarthNet.uav[42] utilizationSecIdle 59626.877028718
scalar OsgEarthNet.uav[42] utilizationEnergyMission 131221.32572174
scalar OsgEarthNet.uav[42] utilizationEnergyMaintenance 66237.89226532
scalar OsgEarthNet.uav[42] utilizationEnergyCharge 197124.67626953
scalar OsgEarthNet.uav[42] utilizationEnergyOverdrawMission 0
scalar OsgEarthNet.uav[42] utilizationEnergyOverdrawMaintenance 0
scalar OsgEarthNet.uav[42] utilizationCountMissions 42
scalar OsgEarthNet.uav[42] utilizationCountManeuversMission 444
scalar OsgEarthNet.uav[42] utilizationCountManeuversMaintenance 84
scalar OsgEarthNet.uav[42] utilizationCountChargeState 42
scalar OsgEarthNet.uav[42] utilizationCountOverdrawnAfterMission 0
scalar OsgEarthNet.uav[42] utilizationCountIdleState 42
scalar OsgEarthNet.uav[42] utilizationFail 0
scalar OsgEarthNet.uav[42] simulationTime 259200
scalar OsgEarthNet.uav[43] utilizationSecMission 25760.03063294
scalar OsgEarthNet.uav[43] utilizationSecMaintenance 13777.378551283
scalar OsgEarthNet.uav[43] utilizationSecCharge 143721.32366431
scalar OsgEarthNet.uav[43] utilizationSecIdle 75941.266151468
scalar OsgEarthNet.uav[43] utilizationEnergyMission 119105.10489655
scalar OsgEarthNet.uav[43] utilizationEnergyMaintenance 64442.662220001
scalar OsgEarthNet.uav[43] utilizationEnergyCharge 181428.93798828
scalar OsgEarthNet.uav[43] utilizationEnergyOverdrawMission 0
scalar OsgEarthNet.uav[43] utilizationEnergyOverdrawMaintenance 0
scalar OsgEarthNet.uav[43] utilizationCountMissions 39
scalar OsgEarthNet.uav[43] utilizationCountManeuversMission 432
scalar OsgEarthNet.uav[43] utilizationCountManeuversMaintenance 78
scalar OsgEarthNet.uav[43] utilizationCountChargeState 39
scalar OsgEarthNet.uav[43] utilizationCountOverdrawnAfterMission 0
scalar OsgEarthNet.uav[43] utilizationCountIdleState 38
scalar OsgEarthNet.uav[43] utilizationFail 0
scalar OsgEarthNet.uav[43] simulationTime 259200
scalar OsgEarthNet.uav[44] utilizationSecMission 30609.8302771
scalar OsgEarthNet.uav[44] utilizationSecMaintenance 13402.740353202
scalar OsgEarthNet.uav[44] utilizationSecCharge 159319.08750974
scalar OsgEarthNet.uav[44] utilizationSecIdle 55868.34085996
scalar OsgEarthNet.uav[44] utilizationEnergyMission 140982.93929291
scalar OsgEarthNet.uav[44] utilizationEnergyMaintenance 62483.554122925
scalar OsgEarthNet.uav[44] utilizationEnergyCharge 199477.2890625
scalar OsgEarthNet.uav[44] utilizationEnergyOverdrawMission 0
scalar OsgEarthNet.uav[44] utilizationEnergyOverdrawMaintenance 0
scalar OsgEarthNet.uav[44] utilizationCountMissions 44
scalar OsgEarthNet.uav[44] utilizationCountManeuversMission 496
scalar OsgEarthNet.uav[44] utilizationCountManeuversMaintenance 88
scalar OsgEarthNet.uav[44] utilizationCountChargeState 44
scalar OsgEarthNet.uav[44] utilizationCountOverdrawnAfterMission 0
scalar OsgEarthNet.uav[44] utilizationCountIdleState 44
scalar OsgEarthNet.uav[44] utilizationFail 0
scalar OsgEarthNet.uav[44] simulationTime 259200
scalar OsgEarthNet.uav[45] utilizationSecMission 29861.627012283
scalar OsgEarthNet.uav[45] utilizationSecMaintenance 14313.744830022
scalar OsgEarthNet.uav[45] utilizationSecCharge 162037.97384837
scalar OsgEarthNet.uav[45] utilizationSecIdle 52986.653309323
scalar OsgEarthNet.uav[45] utilizationEnergyMission 137651.86099243
scalar OsgEarthNet.uav[45] utilizationEnergyMaintenance 68358.689407349
scalar OsgEarthNet.uav[45] utilizationEnergyCharge 204639.24926758
scalar OsgEarthNet.uav[45] utilizationEnergyOverdrawMission 0
scalar OsgEarthNet.uav[45] utilizationEnergyOverdrawMaintenance 0
scalar OsgEarthNet.uav[45] utilizationCountMissions 44
scalar OsgEarthNet.uav[45] utilizationCountManeuversMission 488
scalar OsgEarthNet.uav[45] utilizationCountManeuversMaintenance 88
scalar OsgEarthNet.uav[45] utilizationCountChargeState 44
scalar OsgEarthNet.uav[45] utilizationCountOverdrawnAfterMission 0
scalar OsgEarthNet.uav[45] utilizationCountIdleState 43
scalar OsgEarthNet.uav[45] utilizationFail 0
scalar OsgEarthNet.uav[45] simulationTime 259200
scalar OsgEarthNet.uav[46] utilizationSecMission 29848.540089256
scalar OsgEarthNet.uav[46] utilizationSecMaintenance 17243.418191931
scalar OsgEarthNet.uav[46] utilizationSecCharge 170456.04071881
scalar OsgEarthNet.uav[46] utilizationSecIdle 41652
scalar OsgEarthNet.uav[46] utilizationEnergyMission 137513.85785132
scalar OsgEarthNet.uav[46] utilizationEnergyMaintenance 79889.313007355
scalar OsgEarthNet.uav[46] utilizationEnergyCharge 213762.17858887
scalar OsgEarthNet.uav[46] utilizationEnergyOverdrawMission 0
scalar OsgEarthNet.uav[46] utilizationEnergyOverdrawMaintenance 0
scalar OsgEarthNet.uav[46] utilizationCountMissions 47
scalar OsgEarthNet.uav[46] utilizationCountManeuversMission 473
scalar OsgEarthNet.uav[46] utilizationCountManeuversMaintenance 93
scalar OsgEarthNet.uav[46] utilizationCountChargeState 47
scalar OsgEarthNet.uav[46] utilizationCountOverdrawnAfterMission 0
scalar OsgEarthNet.uav[46] utilizationCountIdleState 46
scalar OsgEarthNet.uav[46] utilizationFail 0
scalar OsgEarthNet.uav[46] simulationTime 259200
scalar OsgEarthNet.uav[47] utilizationSecMission 31266.831189206
scalar OsgEarthNet.uav[47] utilizationSecMaintenance 15376.679005167
scalar OsgEarthNet.uav[47] utilizationSecCharge 171844.48880563
scalar OsgEarthNet.uav[47] utilizationSecIdle 40712
scalar OsgEarthNet.uav[47] utilizationEnergyMission 144974.9233017
scalar OsgEarthNet.uav[47] utilizationEnergyMaintenance 71980.96471405
scalar OsgEarthNet.uav[47] utilizationEnergyCharge 216671.31982422
scalar OsgEarthNet.uav[47] utilizationEnergyOverdrawMission 0
scalar OsgEarthNet.uav[47] utilizationEnergyOverdrawMaintenance 0
scalar OsgEarthNet.uav[47] utilizationCountMissions 46
scalar OsgEarthNet.uav[47] utilizationCountManeuversMission 497
scalar OsgEarthNet.uav[47] utilizationCountManeuversMaintenance 91
scalar OsgEarthNet.uav[47] utilizationCountChargeState 46
scalar OsgEarthNet.uav[47] utilizationCountOverdrawnAfterMission 0
scalar OsgEarthNet.uav[47] utilizationCountIdleState 45
scalar OsgEarthNet.uav[47] utilizationFail 0
scalar OsgEarthNet.uav[47] simulationTime 259200
scalar OsgEarthNet.uav[48] utilizationSecMission 28240.358337227
scalar OsgEarthNet.uav[48] utilizationSecMaintenance 15709.265759761
scalar OsgEarthNet.uav[48] utilizationSecCharge 162549.66684578
scalar OsgEarthNet.uav[48] utilizationSecIdle 52700.708057228
scalar OsgEarthNet.uav[48] utilizationEnergyMission 130902.88930511
scalar OsgEarthNet.uav[48] utilizationEnergyMaintenance 74158.009841919
scalar OsgEarthNet.uav[48] utilizationEnergyCharge 205133.39501953
scalar OsgEarthNet.uav[48] utilizationEnergyOverdrawMission 0
scalar OsgEarthNet.uav[48] utilizationEnergyOverdrawMaintenance 0
scalar OsgEarthNet.uav[48] utilizationCountMissions 44
scalar OsgEarthNet.uav[48] utilizationCountManeuversMission 463
scalar OsgEarthNet.uav[48] utilizationCountManeuversMaintenance 88
scalar OsgEarthNet.uav[48] utilizationCountChargeState 44
scalar OsgEarthNet.uav[48] utilizationCountOverdrawnAfterMission 0
scalar OsgEarthNet.uav[48] utilizationCountIdleState 44
scalar OsgEarthNet.uav[48] utilizationFail 0
scalar OsgEarthNet.uav[48] simulationTime 259200
scalar OsgEarthNet.uav[49] utilizationSecMission 29135.886256663
scalar OsgEarthNet.uav[49] utilizationSecMaintenance 15088.625230534
scalar OsgEarthNet.uav[49] utilizationSecCharge 163330
scalar OsgEarthNet.uav[49] utilizationSecIdle 51645.487512803
scalar OsgEarthNet.uav[49] utilizationEnergyMission 134461.96953583
scalar OsgEarthNet.uav[49] utilizationEnergyMaintenance 70280.936355591
scalar OsgEarthNet.uav[49] utilizationEnergyCharge 204647.75634766
scalar OsgEarthNet.uav[49] utilizationEnergyOverdrawMission 0
scalar OsgEarthNet.uav[49] utilizationEnergyOverdrawMaintenance 0
scalar OsgEarthNet.uav[49] utilizationCountMissions 44
scalar OsgEarthNet.uav[49] utilizationCountManeuversMission 464
scalar OsgEarthNet.uav[49] utilizationCountManeuversMaintenance 88
scalar OsgEarthNet.uav[49] utilizationCountChargeState 44
scalar OsgEarthNet.uav[49] utilizationCountOverdrawnAfterMission 0
scalar OsgEarthNet.uav[49] utilizationCountIdleState 44
scalar OsgEarthNet.uav[49] utilizationFail 0
scalar OsgEarthNet.uav[49] simulationTime 259200
scalar OsgEarthNet.cs[0] usedPower 554107.21295218
scalar OsgEarthNet.cs[0] chargedPower 554107.21295218
scalar OsgEarthNet.cs[0] chargedMobileNodes 117
scalar OsgEarthNet.cs[0] reservations 119
scalar OsgEarthNet.cs[1] usedPower 1130507.4376237
scalar OsgEarthNet.cs[1] chargedPower 1130507.4376237
scalar OsgEarthNet.cs[1] chargedMobileNodes 238
scalar OsgEarthNet.cs[1] reservations 243
scalar OsgEarthNet.cs[2] usedPower 2635464.8760663
scalar OsgEarthNet.cs[2] chargedPower 2635464.8760663
scalar OsgEarthNet.cs[2] chargedMobileNodes 552
scalar OsgEarthNet.cs[2] reservations 566
scalar OsgEarthNet.cs[3] usedPower 801264.19519464
scalar OsgEarthNet.cs[3] chargedPower 801264.19519464
scalar OsgEarthNet.cs[3] chargedMobileNodes 173
scalar OsgEarthNet.cs[3] reservations 173
scalar OsgEarthNet.cs[4] usedPower 793695.3724327
scalar OsgEarthNet.cs[4] chargedPower 793695.3724327
scalar OsgEarthNet.cs[4] chargedMobileNodes 170
scalar OsgEarthNet.cs[4] reservations 171
scalar OsgEarthNet.cs[5] usedPower 523876.37311213
scalar OsgEarthNet.cs[5] chargedPower 523876.37311213
scalar OsgEarthNet.cs[5] chargedMobileNodes 109
scalar OsgEarthNet.cs[5] reservations 111
scalar OsgEarthNet.cs[6] usedPower 2493305.4524299
scalar OsgEarthNet.cs[6] chargedPower 2493305.4524299
scalar OsgEarthNet.cs[6] chargedMobileNodes 533
scalar OsgEarthNet.cs[6] reservations 544

