version 2
run Szenario_Hotel_Gabelbach-10-20180710-13:43:53-27024
attr configname Szenario_Hotel_Gabelbach
attr datetime 20180710-13:43:53
attr experiment Szenario_Hotel_Gabelbach
attr inifile omnetpp.ini
attr iterationvars "$replM=0, $replSearchM=0"
attr iterationvarsf replM=0,replSearchM=0-
attr measurement "$replM=0, $replSearchM=0"
attr network OsgEarthNet
attr processid 27024
attr repetition 10
attr replication #10
attr resultdir results
attr runnumber 10
attr seedset 10
itervar replM 0
itervar replSearchM 0
param *.osgEarthScene.scene "\"Szenario_Hotel_Gabelbach.earth\""
param *.playgroundLatitude 50.6830269
param *.playgroundLongitude 10.8538055
param *.playgroundWidth 3500m
param *.playgroundHeight 3500m
param *.numUAVs 100
param *.cs[0].posX 3537m
param *.cs[0].posY 965m
param *.cs[0].posZ 538m
param *.cs[1].posX 312m
param *.cs[1].posY 1262m
param *.cs[1].posZ 539m
param *.cs[2].posX 2185m
param *.cs[2].posY 3026m
param *.cs[2].posZ 777m
param *.cs[3].posX 10m
param *.cs[3].posY 2200m
param *.cs[3].posZ 560m
param *.cs[4].posX 750m
param *.cs[4].posY 200m
param *.cs[4].posZ 540m
param *.cs[5].posX 2450m
param *.cs[5].posY 180m
param *.cs[5].posZ 524m
param *.cs[6].posX 3140m
param *.cs[6].posY 1790m
param *.cs[6].posZ 606m
param *.numCSs 7
param *.uav[*].replacementMethod 0
param *.missionControl.replacementSearchMethod 0
param *.*.timeStep 10s
param *.uav[*].commandPreviewCommandCount 20
param *.missionControl.missionFiles "\"missions\\\\Szenario_WB_Hotel_Gabelbach_Mission_Hotel.waypoints,missions\\\\Szenario_WB_Hotel_Gabelbach_Mission_Kickelhahn.waypoints,missions\\\\Szenario_WB_Hotel_Gabelbach_Mission_Ilmenau_Sportplatz.waypoints,missions\\\\Szenario_WB_Hotel_Gabelbach_Mission_Manebach_Mitte.waypoints,missions\\\\Szenario_WB_Hotel_Gabelbach_Mission_Manebach_Sued.waypoints\""
param *.missionControl.missionFiles "\"missions\\\\Szenario_WB_Hotel_Gabelbach_Mission_Hotel.waypoints,missions\\\\Szenario_WB_Hotel_Gabelbach_Mission_Kickelhahn.waypoints,missions\\\\Szenario_WB_Hotel_Gabelbach_Mission_Ilmenau_Sportplatz.waypoints,missions\\\\Szenario_WB_Hotel_Gabelbach_Mission_Manebach_Mitte.waypoints,missions\\\\Szenario_WB_Hotel_Gabelbach_Mission_Manebach_Sued.waypoints,missions\\\\Szenario_WB_Hotel_Gabelbach_Hover_HoheSchlaufe.waypoints,missions\\\\Szenario_WB_Hotel_Gabelbach_Hover_Kickelhahn.waypoints,missions\\\\Szenario_WB_Hotel_Gabelbach_Hover_Gabelbachskopf.waypoints,missions\\\\Szenario_WB_Hotel_Gabelbach_Hover_Dachskopf.waypoints\""
param *.uav[0].startX 3537m
param *.uav[0].startY 965m
param *.uav[0].startZ 539m
param *.uav[1].startX 312m
param *.uav[1].startY 1262m
param *.uav[1].startZ 540m
param *.uav[2].startX 2185m
param *.uav[2].startY 3026m
param *.uav[2].startZ 778m
param *.uav[3].startX 3537m
param *.uav[3].startY 965m
param *.uav[3].startZ 539m
param *.uav[4].startX 312m
param *.uav[4].startY 1262m
param *.uav[4].startZ 540m
param *.uav[5].startX 2185m
param *.uav[5].startY 3026m
param *.uav[5].startZ 778m
param *.uav[6].startX 3537m
param *.uav[6].startY 965m
param *.uav[6].startZ 539m
param *.uav[7].startX 312m
param *.uav[7].startY 1262m
param *.uav[7].startZ 540m
param *.uav[8].startX 2185m
param *.uav[8].startY 3026m
param *.uav[8].startZ 778m
param *.uav[9].startX 3537m
param *.uav[9].startY 965m
param *.uav[9].startZ 539m
param *.uav[10].startX 3537m
param *.uav[10].startY 965m
param *.uav[10].startZ 539m
param *.uav[11].startX 312m
param *.uav[11].startY 1262m
param *.uav[11].startZ 540m
param *.uav[12].startX 2185m
param *.uav[12].startY 3026m
param *.uav[12].startZ 778m
param *.uav[13].startX 3537m
param *.uav[13].startY 965m
param *.uav[13].startZ 539m
param *.uav[14].startX 312m
param *.uav[14].startY 1262m
param *.uav[14].startZ 540m
param *.uav[15].startX 2185m
param *.uav[15].startY 3026m
param *.uav[15].startZ 778m
param *.uav[16].startX 3537m
param *.uav[16].startY 965m
param *.uav[16].startZ 539m
param *.uav[17].startX 312m
param *.uav[17].startY 1262m
param *.uav[17].startZ 540m
param *.uav[18].startX 2185m
param *.uav[18].startY 3026m
param *.uav[18].startZ 778m
param *.uav[19].startX 3537m
param *.uav[19].startY 965m
param *.uav[19].startZ 539m
param *.uav[20].startX 3537m
param *.uav[20].startY 965m
param *.uav[20].startZ 539m
param *.uav[21].startX 312m
param *.uav[21].startY 1262m
param *.uav[21].startZ 540m
param *.uav[22].startX 2185m
param *.uav[22].startY 3026m
param *.uav[22].startZ 778m
param *.uav[23].startX 3537m
param *.uav[23].startY 965m
param *.uav[23].startZ 539m
param *.uav[24].startX 312m
param *.uav[24].startY 1262m
param *.uav[24].startZ 540m
param *.uav[25].startX 2185m
param *.uav[25].startY 3026m
param *.uav[25].startZ 778m
param *.uav[26].startX 3537m
param *.uav[26].startY 965m
param *.uav[26].startZ 539m
param *.uav[27].startX 312m
param *.uav[27].startY 1262m
param *.uav[27].startZ 540m
param *.uav[28].startX 2185m
param *.uav[28].startY 3026m
param *.uav[28].startZ 778m
param *.uav[29].startX 3537m
param *.uav[29].startY 965m
param *.uav[29].startZ 539m
param *.uav[30].startX 3537m
param *.uav[30].startY 965m
param *.uav[30].startZ 539m
param *.uav[31].startX 312m
param *.uav[31].startY 1262m
param *.uav[31].startZ 540m
param *.uav[32].startX 2185m
param *.uav[32].startY 3026m
param *.uav[32].startZ 778m
param *.uav[33].startX 3537m
param *.uav[33].startY 965m
param *.uav[33].startZ 539m
param *.uav[34].startX 312m
param *.uav[34].startY 1262m
param *.uav[34].startZ 540m
param *.uav[35].startX 2185m
param *.uav[35].startY 3026m
param *.uav[35].startZ 778m
param *.uav[36].startX 3537m
param *.uav[36].startY 965m
param *.uav[36].startZ 539m
param *.uav[37].startX 312m
param *.uav[37].startY 1262m
param *.uav[37].startZ 540m
param *.uav[38].startX 2185m
param *.uav[38].startY 3026m
param *.uav[38].startZ 778m
param *.uav[39].startX 3537m
param *.uav[39].startY 965m
param *.uav[39].startZ 539m
param *.uav[40].startX 3537m
param *.uav[40].startY 965m
param *.uav[40].startZ 539m
param *.uav[41].startX 312m
param *.uav[41].startY 1262m
param *.uav[41].startZ 540m
param *.uav[42].startX 2185m
param *.uav[42].startY 3026m
param *.uav[42].startZ 778m
param *.uav[43].startX 3537m
param *.uav[43].startY 965m
param *.uav[43].startZ 539m
param *.uav[44].startX 312m
param *.uav[44].startY 1262m
param *.uav[44].startZ 540m
param *.uav[45].startX 2185m
param *.uav[45].startY 3026m
param *.uav[45].startZ 778m
param *.uav[46].startX 3537m
param *.uav[46].startY 965m
param *.uav[46].startZ 539m
param *.uav[47].startX 312m
param *.uav[47].startY 1262m
param *.uav[47].startZ 540m
param *.uav[48].startX 2185m
param *.uav[48].startY 3026m
param *.uav[48].startZ 778m
param *.uav[49].startX 3537m
param *.uav[49].startY 965m
param *.uav[49].startZ 539m
param *.uav[50].startX 3537m
param *.uav[50].startY 965m
param *.uav[50].startZ 539m
param *.uav[51].startX 312m
param *.uav[51].startY 1262m
param *.uav[51].startZ 540m
param *.uav[52].startX 2185m
param *.uav[52].startY 3026m
param *.uav[52].startZ 778m
param *.uav[53].startX 3537m
param *.uav[53].startY 965m
param *.uav[53].startZ 539m
param *.uav[54].startX 312m
param *.uav[54].startY 1262m
param *.uav[54].startZ 540m
param *.uav[55].startX 2185m
param *.uav[55].startY 3026m
param *.uav[55].startZ 778m
param *.uav[56].startX 3537m
param *.uav[56].startY 965m
param *.uav[56].startZ 539m
param *.uav[57].startX 312m
param *.uav[57].startY 1262m
param *.uav[57].startZ 540m
param *.uav[58].startX 2185m
param *.uav[58].startY 3026m
param *.uav[58].startZ 778m
param *.uav[59].startX 3537m
param *.uav[59].startY 965m
param *.uav[59].startZ 539m
param *.uav[60].startX 3537m
param *.uav[60].startY 965m
param *.uav[60].startZ 539m
param *.uav[61].startX 312m
param *.uav[61].startY 1262m
param *.uav[61].startZ 540m
param *.uav[62].startX 2185m
param *.uav[62].startY 3026m
param *.uav[62].startZ 778m
param *.uav[63].startX 3537m
param *.uav[63].startY 965m
param *.uav[63].startZ 539m
param *.uav[64].startX 312m
param *.uav[64].startY 1262m
param *.uav[64].startZ 540m
param *.uav[65].startX 2185m
param *.uav[65].startY 3026m
param *.uav[65].startZ 778m
param *.uav[66].startX 3537m
param *.uav[66].startY 965m
param *.uav[66].startZ 539m
param *.uav[67].startX 312m
param *.uav[67].startY 1262m
param *.uav[67].startZ 540m
param *.uav[68].startX 2185m
param *.uav[68].startY 3026m
param *.uav[68].startZ 778m
param *.uav[69].startX 3537m
param *.uav[69].startY 965m
param *.uav[69].startZ 539m
param *.uav[70].startX 3537m
param *.uav[70].startY 965m
param *.uav[70].startZ 539m
param *.uav[71].startX 312m
param *.uav[71].startY 1262m
param *.uav[71].startZ 540m
param *.uav[72].startX 2185m
param *.uav[72].startY 3026m
param *.uav[72].startZ 778m
param *.uav[73].startX 3537m
param *.uav[73].startY 965m
param *.uav[73].startZ 539m
param *.uav[74].startX 312m
param *.uav[74].startY 1262m
param *.uav[74].startZ 540m
param *.uav[75].startX 2185m
param *.uav[75].startY 3026m
param *.uav[75].startZ 778m
param *.uav[76].startX 3537m
param *.uav[76].startY 965m
param *.uav[76].startZ 539m
param *.uav[77].startX 312m
param *.uav[77].startY 1262m
param *.uav[77].startZ 540m
param *.uav[78].startX 2185m
param *.uav[78].startY 3026m
param *.uav[78].startZ 778m
param *.uav[79].startX 3537m
param *.uav[79].startY 965m
param *.uav[79].startZ 539m
param *.uav[80].startX 3537m
param *.uav[80].startY 965m
param *.uav[80].startZ 539m
param *.uav[81].startX 312m
param *.uav[81].startY 1262m
param *.uav[81].startZ 540m
param *.uav[82].startX 2185m
param *.uav[82].startY 3026m
param *.uav[82].startZ 778m
param *.uav[83].startX 3537m
param *.uav[83].startY 965m
param *.uav[83].startZ 539m
param *.uav[84].startX 312m
param *.uav[84].startY 1262m
param *.uav[84].startZ 540m
param *.uav[85].startX 2185m
param *.uav[85].startY 3026m
param *.uav[85].startZ 778m
param *.uav[86].startX 3537m
param *.uav[86].startY 965m
param *.uav[86].startZ 539m
param *.uav[87].startX 312m
param *.uav[87].startY 1262m
param *.uav[87].startZ 540m
param *.uav[88].startX 2185m
param *.uav[88].startY 3026m
param *.uav[88].startZ 778m
param *.uav[89].startX 3537m
param *.uav[89].startY 965m
param *.uav[89].startZ 539m
param *.uav[90].startX 3537m
param *.uav[90].startY 965m
param *.uav[90].startZ 539m
param *.uav[91].startX 312m
param *.uav[91].startY 1262m
param *.uav[91].startZ 540m
param *.uav[92].startX 2185m
param *.uav[92].startY 3026m
param *.uav[92].startZ 778m
param *.uav[93].startX 3537m
param *.uav[93].startY 965m
param *.uav[93].startZ 539m
param *.uav[94].startX 312m
param *.uav[94].startY 1262m
param *.uav[94].startZ 540m
param *.uav[95].startX 2185m
param *.uav[95].startY 3026m
param *.uav[95].startZ 778m
param *.uav[96].startX 3537m
param *.uav[96].startY 965m
param *.uav[96].startZ 539m
param *.uav[97].startX 312m
param *.uav[97].startY 1262m
param *.uav[97].startZ 540m
param *.uav[98].startX 2185m
param *.uav[98].startY 3026m
param *.uav[98].startZ 778m
param *.uav[99].startX 3537m
param *.uav[99].startY 965m
param *.uav[99].startZ 539m
param *.osgEarthScene.scene "\"boston.earth\""
param *.playgroundLatitude 42.3558
param *.playgroundLongitude -71.0677
param *.playgroundWidth 400m
param *.playgroundHeight 200m
param *.channelController.connectionColor "\"#0000FF40\""
param *.channelController.showConnections false
param *.uav[*].modelURL "\"quadrocopter.small.obj.15.scale.0,0,90.rot\""
param *.uav[*].labelColor "\"#FF7C00CC\""
param *.uav[*].label2Color "\"#FF7C00EE\""
param *.uav[*].batteryCapacity 5200mAh
param *.uav[*].batteryRemaining uav[index].batteryCapacity
param *.uav[*].predictionQuantile 0.95
param *.uav[*].replacementMethod 2
param *.uav[*].weightedSumWeight 0.5
param *.cs[*].modelURL "\"chargingstation_v1.osgt.2.scale.0,0,0.rot.0,0,-15e-1.trans\""
param *.cs[*].spotsWaiting 999
param *.cs[*].spotsCharging 999
param *.cs[*].chargeEffectivenessPercentage 100
param *.cs[*].nonLinearPhaseStartPercentage 85
param *.cs[*].chargeCurrent 6.0A
param *.cs[*].prioritizeFastCharge true
param *.missionControl.replacementSearchMethod 0
param *.*.timeStep 9s

scalar OsgEarthNet.uav[0] utilizationSecMission 553.12566654921
scalar OsgEarthNet.uav[0] utilizationSecMaintenance 450.43069856406
scalar OsgEarthNet.uav[0] utilizationSecCharge 3680
scalar OsgEarthNet.uav[0] utilizationSecIdle 254516.44263489
scalar OsgEarthNet.uav[0] utilizationEnergyMission 2571.2496795654
scalar OsgEarthNet.uav[0] utilizationEnergyMaintenance 2050.7518730164
scalar OsgEarthNet.uav[0] utilizationEnergyCharge 4615.6826171875
scalar OsgEarthNet.uav[0] utilizationEnergyOverdrawMission 0
scalar OsgEarthNet.uav[0] utilizationEnergyOverdrawMaintenance 0
scalar OsgEarthNet.uav[0] utilizationCountMissions 1
scalar OsgEarthNet.uav[0] utilizationCountManeuversMission 9
scalar OsgEarthNet.uav[0] utilizationCountManeuversMaintenance 2
scalar OsgEarthNet.uav[0] utilizationCountChargeState 1
scalar OsgEarthNet.uav[0] utilizationCountOverdrawnAfterMission 0
scalar OsgEarthNet.uav[0] utilizationCountIdleState 2
scalar OsgEarthNet.uav[0] utilizationFail 0
scalar OsgEarthNet.uav[0] simulationTime 259200
scalar OsgEarthNet.uav[1] utilizationSecMission 28270.628413366
scalar OsgEarthNet.uav[1] utilizationSecMaintenance 12955.667636623
scalar OsgEarthNet.uav[1] utilizationSecCharge 149607.43563705
scalar OsgEarthNet.uav[1] utilizationSecIdle 68366.267312958
scalar OsgEarthNet.uav[1] utilizationEnergyMission 132343.77775574
scalar OsgEarthNet.uav[1] utilizationEnergyMaintenance 60853.988613129
scalar OsgEarthNet.uav[1] utilizationEnergyCharge 187697.58670044
scalar OsgEarthNet.uav[1] utilizationEnergyOverdrawMission 0
scalar OsgEarthNet.uav[1] utilizationEnergyOverdrawMaintenance 0
scalar OsgEarthNet.uav[1] utilizationCountMissions 41
scalar OsgEarthNet.uav[1] utilizationCountManeuversMission 465
scalar OsgEarthNet.uav[1] utilizationCountManeuversMaintenance 82
scalar OsgEarthNet.uav[1] utilizationCountChargeState 41
scalar OsgEarthNet.uav[1] utilizationCountOverdrawnAfterMission 0
scalar OsgEarthNet.uav[1] utilizationCountIdleState 41
scalar OsgEarthNet.uav[1] utilizationFail 0
scalar OsgEarthNet.uav[1] simulationTime 259200
scalar OsgEarthNet.uav[2] utilizationSecMission 750.20472747826
scalar OsgEarthNet.uav[2] utilizationSecMaintenance 280.95484451848
scalar OsgEarthNet.uav[2] utilizationSecCharge 3710
scalar OsgEarthNet.uav[2] utilizationSecIdle 254458.839428
scalar OsgEarthNet.uav[2] utilizationEnergyMission 3327.323928833
scalar OsgEarthNet.uav[2] utilizationEnergyMaintenance 1304.0871391296
scalar OsgEarthNet.uav[2] utilizationEnergyCharge 4631.4111328125
scalar OsgEarthNet.uav[2] utilizationEnergyOverdrawMission 0
scalar OsgEarthNet.uav[2] utilizationEnergyOverdrawMaintenance 0
scalar OsgEarthNet.uav[2] utilizationCountMissions 1
scalar OsgEarthNet.uav[2] utilizationCountManeuversMission 11
scalar OsgEarthNet.uav[2] utilizationCountManeuversMaintenance 2
scalar OsgEarthNet.uav[2] utilizationCountChargeState 1
scalar OsgEarthNet.uav[2] utilizationCountOverdrawnAfterMission 0
scalar OsgEarthNet.uav[2] utilizationCountIdleState 2
scalar OsgEarthNet.uav[2] utilizationFail 0
scalar OsgEarthNet.uav[2] simulationTime 259200
scalar OsgEarthNet.uav[3] utilizationSecMission 836.77707522227
scalar OsgEarthNet.uav[3] utilizationSecMaintenance 217.0347828456
scalar OsgEarthNet.uav[3] utilizationSecCharge 3790
scalar OsgEarthNet.uav[3] utilizationSecIdle 254356.18714193
scalar OsgEarthNet.uav[3] utilizationEnergyMission 3933.4971542358
scalar OsgEarthNet.uav[3] utilizationEnergyMaintenance 1008.7319755554
scalar OsgEarthNet.uav[3] utilizationEnergyCharge 4765.0493164062
scalar OsgEarthNet.uav[3] utilizationEnergyOverdrawMission 0
scalar OsgEarthNet.uav[3] utilizationEnergyOverdrawMaintenance 0
scalar OsgEarthNet.uav[3] utilizationCountMissions 1
scalar OsgEarthNet.uav[3] utilizationCountManeuversMission 13
scalar OsgEarthNet.uav[3] utilizationCountManeuversMaintenance 2
scalar OsgEarthNet.uav[3] utilizationCountChargeState 1
scalar OsgEarthNet.uav[3] utilizationCountOverdrawnAfterMission 0
scalar OsgEarthNet.uav[3] utilizationCountIdleState 2
scalar OsgEarthNet.uav[3] utilizationFail 0
scalar OsgEarthNet.uav[3] simulationTime 259200
scalar OsgEarthNet.uav[4] utilizationSecMission 27083.303978838
scalar OsgEarthNet.uav[4] utilizationSecMaintenance 13189.184463955
scalar OsgEarthNet.uav[4] utilizationSecCharge 145700
scalar OsgEarthNet.uav[4] utilizationSecIdle 73227.510557207
scalar OsgEarthNet.uav[4] utilizationEnergyMission 124228.83556124
scalar OsgEarthNet.uav[4] utilizationEnergyMaintenance 61129.217700958
scalar OsgEarthNet.uav[4] utilizationEnergyCharge 182794.57177734
scalar OsgEarthNet.uav[4] utilizationEnergyOverdrawMission 0
scalar OsgEarthNet.uav[4] utilizationEnergyOverdrawMaintenance 0
scalar OsgEarthNet.uav[4] utilizationCountMissions 39
scalar OsgEarthNet.uav[4] utilizationCountManeuversMission 429
scalar OsgEarthNet.uav[4] utilizationCountManeuversMaintenance 79
scalar OsgEarthNet.uav[4] utilizationCountChargeState 39
scalar OsgEarthNet.uav[4] utilizationCountOverdrawnAfterMission 0
scalar OsgEarthNet.uav[4] utilizationCountIdleState 40
scalar OsgEarthNet.uav[4] utilizationFail 0
scalar OsgEarthNet.uav[4] simulationTime 259200
scalar OsgEarthNet.uav[5] utilizationSecMission 27460.686895945
scalar OsgEarthNet.uav[5] utilizationSecMaintenance 15181.967057259
scalar OsgEarthNet.uav[5] utilizationSecCharge 156362.84710562
scalar OsgEarthNet.uav[5] utilizationSecIdle 60194.497941176
scalar OsgEarthNet.uav[5] utilizationEnergyMission 127595.36175537
scalar OsgEarthNet.uav[5] utilizationEnergyMaintenance 71911.513473511
scalar OsgEarthNet.uav[5] utilizationEnergyCharge 196141.58435059
scalar OsgEarthNet.uav[5] utilizationEnergyOverdrawMission 0
scalar OsgEarthNet.uav[5] utilizationEnergyOverdrawMaintenance 0
scalar OsgEarthNet.uav[5] utilizationCountMissions 43
scalar OsgEarthNet.uav[5] utilizationCountManeuversMission 447
scalar OsgEarthNet.uav[5] utilizationCountManeuversMaintenance 86
scalar OsgEarthNet.uav[5] utilizationCountChargeState 43
scalar OsgEarthNet.uav[5] utilizationCountOverdrawnAfterMission 0
scalar OsgEarthNet.uav[5] utilizationCountIdleState 43
scalar OsgEarthNet.uav[5] utilizationFail 0
scalar OsgEarthNet.uav[5] simulationTime 259200
scalar OsgEarthNet.uav[6] utilizationSecMission 615.75933371537
scalar OsgEarthNet.uav[6] utilizationSecMaintenance 350.26850336921
scalar OsgEarthNet.uav[6] utilizationSecCharge 3620
scalar OsgEarthNet.uav[6] utilizationSecIdle 254613.97116292
scalar OsgEarthNet.uav[6] utilizationEnergyMission 2753.4325408936
scalar OsgEarthNet.uav[6] utilizationEnergyMaintenance 1713.1712265015
scalar OsgEarthNet.uav[6] utilizationEnergyCharge 4466.6044921875
scalar OsgEarthNet.uav[6] utilizationEnergyOverdrawMission 0
scalar OsgEarthNet.uav[6] utilizationEnergyOverdrawMaintenance 0
scalar OsgEarthNet.uav[6] utilizationCountMissions 1
scalar OsgEarthNet.uav[6] utilizationCountManeuversMission 9
scalar OsgEarthNet.uav[6] utilizationCountManeuversMaintenance 2
scalar OsgEarthNet.uav[6] utilizationCountChargeState 1
scalar OsgEarthNet.uav[6] utilizationCountOverdrawnAfterMission 0
scalar OsgEarthNet.uav[6] utilizationCountIdleState 2
scalar OsgEarthNet.uav[6] utilizationFail 0
scalar OsgEarthNet.uav[6] simulationTime 259200
scalar OsgEarthNet.uav[7] utilizationSecMission 533.25626237336
scalar OsgEarthNet.uav[7] utilizationSecMaintenance 451.14699917938
scalar OsgEarthNet.uav[7] utilizationSecCharge 3640
scalar OsgEarthNet.uav[7] utilizationSecIdle 254575.59573845
scalar OsgEarthNet.uav[7] utilizationEnergyMission 2448.396774292
scalar OsgEarthNet.uav[7] utilizationEnergyMaintenance 2010.9455833435
scalar OsgEarthNet.uav[7] utilizationEnergyCharge 4521.4150390625
scalar OsgEarthNet.uav[7] utilizationEnergyOverdrawMission 0
scalar OsgEarthNet.uav[7] utilizationEnergyOverdrawMaintenance 0
scalar OsgEarthNet.uav[7] utilizationCountMissions 1
scalar OsgEarthNet.uav[7] utilizationCountManeuversMission 8
scalar OsgEarthNet.uav[7] utilizationCountManeuversMaintenance 2
scalar OsgEarthNet.uav[7] utilizationCountChargeState 1
scalar OsgEarthNet.uav[7] utilizationCountOverdrawnAfterMission 0
scalar OsgEarthNet.uav[7] utilizationCountIdleState 2
scalar OsgEarthNet.uav[7] utilizationFail 0
scalar OsgEarthNet.uav[7] simulationTime 259200
scalar OsgEarthNet.uav[8] utilizationSecMission 22901.792375333
scalar OsgEarthNet.uav[8] utilizationSecMaintenance 10258.995866842
scalar OsgEarthNet.uav[8] utilizationSecCharge 122680
scalar OsgEarthNet.uav[8] utilizationSecIdle 103359.21075783
scalar OsgEarthNet.uav[8] utilizationEnergyMission 105806.73242187
scalar OsgEarthNet.uav[8] utilizationEnergyMaintenance 48242.681739807
scalar OsgEarthNet.uav[8] utilizationEnergyCharge 153773.64111328
scalar OsgEarthNet.uav[8] utilizationEnergyOverdrawMission 0
scalar OsgEarthNet.uav[8] utilizationEnergyOverdrawMaintenance 0
scalar OsgEarthNet.uav[8] utilizationCountMissions 33
scalar OsgEarthNet.uav[8] utilizationCountManeuversMission 364
scalar OsgEarthNet.uav[8] utilizationCountManeuversMaintenance 66
scalar OsgEarthNet.uav[8] utilizationCountChargeState 33
scalar OsgEarthNet.uav[8] utilizationCountOverdrawnAfterMission 0
scalar OsgEarthNet.uav[8] utilizationCountIdleState 34
scalar OsgEarthNet.uav[8] utilizationFail 0
scalar OsgEarthNet.uav[8] simulationTime 259200
scalar OsgEarthNet.uav[9] utilizationSecMission 30395.321543037
scalar OsgEarthNet.uav[9] utilizationSecMaintenance 12919.511364328
scalar OsgEarthNet.uav[9] utilizationSecCharge 159980
scalar OsgEarthNet.uav[9] utilizationSecIdle 55905.166092635
scalar OsgEarthNet.uav[9] utilizationEnergyMission 140109.32364655
scalar OsgEarthNet.uav[9] utilizationEnergyMaintenance 60775.431018829
scalar OsgEarthNet.uav[9] utilizationEnergyCharge 200637.05688477
scalar OsgEarthNet.uav[9] utilizationEnergyOverdrawMission 0
scalar OsgEarthNet.uav[9] utilizationEnergyOverdrawMaintenance 0
scalar OsgEarthNet.uav[9] utilizationCountMissions 43
scalar OsgEarthNet.uav[9] utilizationCountManeuversMission 502
scalar OsgEarthNet.uav[9] utilizationCountManeuversMaintenance 85
scalar OsgEarthNet.uav[9] utilizationCountChargeState 43
scalar OsgEarthNet.uav[9] utilizationCountOverdrawnAfterMission 0
scalar OsgEarthNet.uav[9] utilizationCountIdleState 44
scalar OsgEarthNet.uav[9] utilizationFail 0
scalar OsgEarthNet.uav[9] simulationTime 259200
scalar OsgEarthNet.uav[10] utilizationSecMission 623.68863475643
scalar OsgEarthNet.uav[10] utilizationSecMaintenance 394.94199877579
scalar OsgEarthNet.uav[10] utilizationSecCharge 3860
scalar OsgEarthNet.uav[10] utilizationSecIdle 254321.36836647
scalar OsgEarthNet.uav[10] utilizationEnergyMission 3037.0881195068
scalar OsgEarthNet.uav[10] utilizationEnergyMaintenance 1869.9827194214
scalar OsgEarthNet.uav[10] utilizationEnergyCharge 4934.4711914062
scalar OsgEarthNet.uav[10] utilizationEnergyOverdrawMission 0
scalar OsgEarthNet.uav[10] utilizationEnergyOverdrawMaintenance 0
scalar OsgEarthNet.uav[10] utilizationCountMissions 1
scalar OsgEarthNet.uav[10] utilizationCountManeuversMission 10
scalar OsgEarthNet.uav[10] utilizationCountManeuversMaintenance 2
scalar OsgEarthNet.uav[10] utilizationCountChargeState 1
scalar OsgEarthNet.uav[10] utilizationCountOverdrawnAfterMission 0
scalar OsgEarthNet.uav[10] utilizationCountIdleState 2
scalar OsgEarthNet.uav[10] utilizationFail 0
scalar OsgEarthNet.uav[10] simulationTime 259200
scalar OsgEarthNet.uav[11] utilizationSecMission 528.55000878666
scalar OsgEarthNet.uav[11] utilizationSecMaintenance 478.92797493542
scalar OsgEarthNet.uav[11] utilizationSecCharge 3550
scalar OsgEarthNet.uav[11] utilizationSecIdle 254642.52101628
scalar OsgEarthNet.uav[11] utilizationEnergyMission 2294.0957260132
scalar OsgEarthNet.uav[11] utilizationEnergyMaintenance 2063.5749740601
scalar OsgEarthNet.uav[11] utilizationEnergyCharge 4357.6689453125
scalar OsgEarthNet.uav[11] utilizationEnergyOverdrawMission 0
scalar OsgEarthNet.uav[11] utilizationEnergyOverdrawMaintenance 0
scalar OsgEarthNet.uav[11] utilizationCountMissions 1
scalar OsgEarthNet.uav[11] utilizationCountManeuversMission 10
scalar OsgEarthNet.uav[11] utilizationCountManeuversMaintenance 2
scalar OsgEarthNet.uav[11] utilizationCountChargeState 1
scalar OsgEarthNet.uav[11] utilizationCountOverdrawnAfterMission 0
scalar OsgEarthNet.uav[11] utilizationCountIdleState 2
scalar OsgEarthNet.uav[11] utilizationFail 0
scalar OsgEarthNet.uav[11] simulationTime 259200
scalar OsgEarthNet.uav[12] utilizationSecMission 887.1741082606
scalar OsgEarthNet.uav[12] utilizationSecMaintenance 171.13387461676
scalar OsgEarthNet.uav[12] utilizationSecCharge 3810
scalar OsgEarthNet.uav[12] utilizationSecIdle 254331.69101712
scalar OsgEarthNet.uav[12] utilizationEnergyMission 4004.7600250244
scalar OsgEarthNet.uav[12] utilizationEnergyMaintenance 731.05495452881
scalar OsgEarthNet.uav[12] utilizationEnergyCharge 4791.1669921875
scalar OsgEarthNet.uav[12] utilizationEnergyOverdrawMission 0
scalar OsgEarthNet.uav[12] utilizationEnergyOverdrawMaintenance 0
scalar OsgEarthNet.uav[12] utilizationCountMissions 1
scalar OsgEarthNet.uav[12] utilizationCountManeuversMission 14
scalar OsgEarthNet.uav[12] utilizationCountManeuversMaintenance 2
scalar OsgEarthNet.uav[12] utilizationCountChargeState 1
scalar OsgEarthNet.uav[12] utilizationCountOverdrawnAfterMission 0
scalar OsgEarthNet.uav[12] utilizationCountIdleState 2
scalar OsgEarthNet.uav[12] utilizationFail 0
scalar OsgEarthNet.uav[12] simulationTime 259200
scalar OsgEarthNet.uav[13] utilizationSecMission 623.68863475643
scalar OsgEarthNet.uav[13] utilizationSecMaintenance 394.94199877579
scalar OsgEarthNet.uav[13] utilizationSecCharge 3880
scalar OsgEarthNet.uav[13] utilizationSecIdle 254301.36836647
scalar OsgEarthNet.uav[13] utilizationEnergyMission 3226.2980041504
scalar OsgEarthNet.uav[13] utilizationEnergyMaintenance 1837.9400863647
scalar OsgEarthNet.uav[13] utilizationEnergyCharge 4963.9174804688
scalar OsgEarthNet.uav[13] utilizationEnergyOverdrawMission 0
scalar OsgEarthNet.uav[13] utilizationEnergyOverdrawMaintenance 0
scalar OsgEarthNet.uav[13] utilizationCountMissions 1
scalar OsgEarthNet.uav[13] utilizationCountManeuversMission 10
scalar OsgEarthNet.uav[13] utilizationCountManeuversMaintenance 2
scalar OsgEarthNet.uav[13] utilizationCountChargeState 1
scalar OsgEarthNet.uav[13] utilizationCountOverdrawnAfterMission 0
scalar OsgEarthNet.uav[13] utilizationCountIdleState 2
scalar OsgEarthNet.uav[13] utilizationFail 0
scalar OsgEarthNet.uav[13] simulationTime 259200
scalar OsgEarthNet.uav[14] utilizationSecMission 27884.827926937
scalar OsgEarthNet.uav[14] utilizationSecMaintenance 12964.523949388
scalar OsgEarthNet.uav[14] utilizationSecCharge 149217.61522571
scalar OsgEarthNet.uav[14] utilizationSecIdle 69133.031897961
scalar OsgEarthNet.uav[14] utilizationEnergyMission 128707.64456558
scalar OsgEarthNet.uav[14] utilizationEnergyMaintenance 61683.814220428
scalar OsgEarthNet.uav[14] utilizationEnergyCharge 187130.96130371
scalar OsgEarthNet.uav[14] utilizationEnergyOverdrawMission 0
scalar OsgEarthNet.uav[14] utilizationEnergyOverdrawMaintenance 0
scalar OsgEarthNet.uav[14] utilizationCountMissions 41
scalar OsgEarthNet.uav[14] utilizationCountManeuversMission 456
scalar OsgEarthNet.uav[14] utilizationCountManeuversMaintenance 82
scalar OsgEarthNet.uav[14] utilizationCountChargeState 41
scalar OsgEarthNet.uav[14] utilizationCountOverdrawnAfterMission 0
scalar OsgEarthNet.uav[14] utilizationCountIdleState 41
scalar OsgEarthNet.uav[14] utilizationFail 0
scalar OsgEarthNet.uav[14] simulationTime 259200
scalar OsgEarthNet.uav[15] utilizationSecMission 621.17604176187
scalar OsgEarthNet.uav[15] utilizationSecMaintenance 313.76167006775
scalar OsgEarthNet.uav[15] utilizationSecCharge 3540
scalar OsgEarthNet.uav[15] utilizationSecIdle 254725.06128817
scalar OsgEarthNet.uav[15] utilizationEnergyMission 2897.669380188
scalar OsgEarthNet.uav[15] utilizationEnergyMaintenance 1430.1588249207
scalar OsgEarthNet.uav[15] utilizationEnergyCharge 4327.8310546875
scalar OsgEarthNet.uav[15] utilizationEnergyOverdrawMission 0
scalar OsgEarthNet.uav[15] utilizationEnergyOverdrawMaintenance 0
scalar OsgEarthNet.uav[15] utilizationCountMissions 1
scalar OsgEarthNet.uav[15] utilizationCountManeuversMission 12
scalar OsgEarthNet.uav[15] utilizationCountManeuversMaintenance 2
scalar OsgEarthNet.uav[15] utilizationCountChargeState 1
scalar OsgEarthNet.uav[15] utilizationCountOverdrawnAfterMission 0
scalar OsgEarthNet.uav[15] utilizationCountIdleState 2
scalar OsgEarthNet.uav[15] utilizationFail 0
scalar OsgEarthNet.uav[15] simulationTime 259200
scalar OsgEarthNet.uav[16] utilizationSecMission 606.44898061421
scalar OsgEarthNet.uav[16] utilizationSecMaintenance 389.43253153929
scalar OsgEarthNet.uav[16] utilizationSecCharge 3810
scalar OsgEarthNet.uav[16] utilizationSecIdle 254394.11748785
scalar OsgEarthNet.uav[16] utilizationEnergyMission 2981.5715026856
scalar OsgEarthNet.uav[16] utilizationEnergyMaintenance 1832.4598007202
scalar OsgEarthNet.uav[16] utilizationEnergyCharge 4814.0268554688
scalar OsgEarthNet.uav[16] utilizationEnergyOverdrawMission 0
scalar OsgEarthNet.uav[16] utilizationEnergyOverdrawMaintenance 0
scalar OsgEarthNet.uav[16] utilizationCountMissions 1
scalar OsgEarthNet.uav[16] utilizationCountManeuversMission 9
scalar OsgEarthNet.uav[16] utilizationCountManeuversMaintenance 2
scalar OsgEarthNet.uav[16] utilizationCountChargeState 1
scalar OsgEarthNet.uav[16] utilizationCountOverdrawnAfterMission 0
scalar OsgEarthNet.uav[16] utilizationCountIdleState 2
scalar OsgEarthNet.uav[16] utilizationFail 0
scalar OsgEarthNet.uav[16] simulationTime 259200
scalar OsgEarthNet.uav[17] utilizationSecMission 29470.726790918
scalar OsgEarthNet.uav[17] utilizationSecMaintenance 15514.146704067
scalar OsgEarthNet.uav[17] utilizationSecCharge 165280.42180768
scalar OsgEarthNet.uav[17] utilizationSecIdle 48934.703697336
scalar OsgEarthNet.uav[17] utilizationEnergyMission 137466.16526031
scalar OsgEarthNet.uav[17] utilizationEnergyMaintenance 71568.170478821
scalar OsgEarthNet.uav[17] utilizationEnergyCharge 208098.72460938
scalar OsgEarthNet.uav[17] utilizationEnergyOverdrawMission 0
scalar OsgEarthNet.uav[17] utilizationEnergyOverdrawMaintenance 0
scalar OsgEarthNet.uav[17] utilizationCountMissions 45
scalar OsgEarthNet.uav[17] utilizationCountManeuversMission 493
scalar OsgEarthNet.uav[17] utilizationCountManeuversMaintenance 90
scalar OsgEarthNet.uav[17] utilizationCountChargeState 45
scalar OsgEarthNet.uav[17] utilizationCountOverdrawnAfterMission 0
scalar OsgEarthNet.uav[17] utilizationCountIdleState 45
scalar OsgEarthNet.uav[17] utilizationFail 0
scalar OsgEarthNet.uav[17] simulationTime 259200
scalar OsgEarthNet.uav[18] utilizationSecMission 2962.0423498039
scalar OsgEarthNet.uav[18] utilizationSecMaintenance 1120.5304245231
scalar OsgEarthNet.uav[18] utilizationSecCharge 13310.567179498
scalar OsgEarthNet.uav[18] utilizationSecIdle 241806.85904617
scalar OsgEarthNet.uav[18] utilizationEnergyMission 13451.666290283
scalar OsgEarthNet.uav[18] utilizationEnergyMaintenance 5336.1259613037
scalar OsgEarthNet.uav[18] utilizationEnergyCharge 17661.239990234
scalar OsgEarthNet.uav[18] utilizationEnergyOverdrawMission 0
scalar OsgEarthNet.uav[18] utilizationEnergyOverdrawMaintenance 0
scalar OsgEarthNet.uav[18] utilizationCountMissions 4
scalar OsgEarthNet.uav[18] utilizationCountManeuversMission 44
scalar OsgEarthNet.uav[18] utilizationCountManeuversMaintenance 8
scalar OsgEarthNet.uav[18] utilizationCountChargeState 4
scalar OsgEarthNet.uav[18] utilizationCountOverdrawnAfterMission 0
scalar OsgEarthNet.uav[18] utilizationCountIdleState 4
scalar OsgEarthNet.uav[18] utilizationFail 0
scalar OsgEarthNet.uav[18] simulationTime 259200
scalar OsgEarthNet.uav[19] utilizationSecMission 760.62515258028
scalar OsgEarthNet.uav[19] utilizationSecMaintenance 223.6438949726
scalar OsgEarthNet.uav[19] utilizationSecCharge 3780
scalar OsgEarthNet.uav[19] utilizationSecIdle 254435.72995245
scalar OsgEarthNet.uav[19] utilizationEnergyMission 3628.1229171753
scalar OsgEarthNet.uav[19] utilizationEnergyMaintenance 1094.7443656921
scalar OsgEarthNet.uav[19] utilizationEnergyCharge 4722.865234375
scalar OsgEarthNet.uav[19] utilizationEnergyOverdrawMission 0
scalar OsgEarthNet.uav[19] utilizationEnergyOverdrawMaintenance 0
scalar OsgEarthNet.uav[19] utilizationCountMissions 1
scalar OsgEarthNet.uav[19] utilizationCountManeuversMission 12
scalar OsgEarthNet.uav[19] utilizationCountManeuversMaintenance 2
scalar OsgEarthNet.uav[19] utilizationCountChargeState 1
scalar OsgEarthNet.uav[19] utilizationCountOverdrawnAfterMission 0
scalar OsgEarthNet.uav[19] utilizationCountIdleState 2
scalar OsgEarthNet.uav[19] utilizationFail 0
scalar OsgEarthNet.uav[19] simulationTime 259200
scalar OsgEarthNet.uav[20] utilizationSecMission 25443.17409298
scalar OsgEarthNet.uav[20] utilizationSecMaintenance 12132.097351535
scalar OsgEarthNet.uav[20] utilizationSecCharge 138120
scalar OsgEarthNet.uav[20] utilizationSecIdle 83504.727555485
scalar OsgEarthNet.uav[20] utilizationEnergyMission 117151.51578522
scalar OsgEarthNet.uav[20] utilizationEnergyMaintenance 56112.303646088
scalar OsgEarthNet.uav[20] utilizationEnergyCharge 173530.18359375
scalar OsgEarthNet.uav[20] utilizationEnergyOverdrawMission 0
scalar OsgEarthNet.uav[20] utilizationEnergyOverdrawMaintenance 0
scalar OsgEarthNet.uav[20] utilizationCountMissions 37
scalar OsgEarthNet.uav[20] utilizationCountManeuversMission 407
scalar OsgEarthNet.uav[20] utilizationCountManeuversMaintenance 74
scalar OsgEarthNet.uav[20] utilizationCountChargeState 37
scalar OsgEarthNet.uav[20] utilizationCountOverdrawnAfterMission 0
scalar OsgEarthNet.uav[20] utilizationCountIdleState 38
scalar OsgEarthNet.uav[20] utilizationFail 0
scalar OsgEarthNet.uav[20] simulationTime 259200
scalar OsgEarthNet.uav[21] utilizationSecMission 533.25626237336
scalar OsgEarthNet.uav[21] utilizationSecMaintenance 451.14699917938
scalar OsgEarthNet.uav[21] utilizationSecCharge 3650
scalar OsgEarthNet.uav[21] utilizationSecIdle 254565.59573845
scalar OsgEarthNet.uav[21] utilizationEnergyMission 2393.610458374
scalar OsgEarthNet.uav[21] utilizationEnergyMaintenance 2047.6545982361
scalar OsgEarthNet.uav[21] utilizationEnergyCharge 4534.470703125
scalar OsgEarthNet.uav[21] utilizationEnergyOverdrawMission 0
scalar OsgEarthNet.uav[21] utilizationEnergyOverdrawMaintenance 0
scalar OsgEarthNet.uav[21] utilizationCountMissions 1
scalar OsgEarthNet.uav[21] utilizationCountManeuversMission 8
scalar OsgEarthNet.uav[21] utilizationCountManeuversMaintenance 2
scalar OsgEarthNet.uav[21] utilizationCountChargeState 1
scalar OsgEarthNet.uav[21] utilizationCountOverdrawnAfterMission 0
scalar OsgEarthNet.uav[21] utilizationCountIdleState 2
scalar OsgEarthNet.uav[21] utilizationFail 0
scalar OsgEarthNet.uav[21] simulationTime 259200
scalar OsgEarthNet.uav[22] utilizationSecMission 16568.189084892
scalar OsgEarthNet.uav[22] utilizationSecMaintenance 7573.5547599507
scalar OsgEarthNet.uav[22] utilizationSecCharge 88877.547097929
scalar OsgEarthNet.uav[22] utilizationSecIdle 146180.70805723
scalar OsgEarthNet.uav[22] utilizationEnergyMission 76444.896202087
scalar OsgEarthNet.uav[22] utilizationEnergyMaintenance 35017.224502563
scalar OsgEarthNet.uav[22] utilizationEnergyCharge 111445.16503906
scalar OsgEarthNet.uav[22] utilizationEnergyOverdrawMission 0
scalar OsgEarthNet.uav[22] utilizationEnergyOverdrawMaintenance 0
scalar OsgEarthNet.uav[22] utilizationCountMissions 24
scalar OsgEarthNet.uav[22] utilizationCountManeuversMission 264
scalar OsgEarthNet.uav[22] utilizationCountManeuversMaintenance 48
scalar OsgEarthNet.uav[22] utilizationCountChargeState 24
scalar OsgEarthNet.uav[22] utilizationCountOverdrawnAfterMission 0
scalar OsgEarthNet.uav[22] utilizationCountIdleState 24
scalar OsgEarthNet.uav[22] utilizationFail 0
scalar OsgEarthNet.uav[22] simulationTime 259200
scalar OsgEarthNet.uav[23] utilizationSecMission 616.06593675614
scalar OsgEarthNet.uav[23] utilizationSecMaintenance 462.29459772748
scalar OsgEarthNet.uav[23] utilizationSecCharge 3930
scalar OsgEarthNet.uav[23] utilizationSecIdle 254191.63846552
scalar OsgEarthNet.uav[23] utilizationEnergyMission 2787.7475585937
scalar OsgEarthNet.uav[23] utilizationEnergyMaintenance 2277.0486068726
scalar OsgEarthNet.uav[23] utilizationEnergyCharge 5030.265625
scalar OsgEarthNet.uav[23] utilizationEnergyOverdrawMission 0
scalar OsgEarthNet.uav[23] utilizationEnergyOverdrawMaintenance 0
scalar OsgEarthNet.uav[23] utilizationCountMissions 1
scalar OsgEarthNet.uav[23] utilizationCountManeuversMission 10
scalar OsgEarthNet.uav[23] utilizationCountManeuversMaintenance 2
scalar OsgEarthNet.uav[23] utilizationCountChargeState 1
scalar OsgEarthNet.uav[23] utilizationCountOverdrawnAfterMission 0
scalar OsgEarthNet.uav[23] utilizationCountIdleState 2
scalar OsgEarthNet.uav[23] utilizationFail 0
scalar OsgEarthNet.uav[23] simulationTime 259200
scalar OsgEarthNet.uav[24] utilizationSecMission 17714.485012222
scalar OsgEarthNet.uav[24] utilizationSecMaintenance 7760.0858757732
scalar OsgEarthNet.uav[24] utilizationSecCharge 92950
scalar OsgEarthNet.uav[24] utilizationSecIdle 140775.42811201
scalar OsgEarthNet.uav[24] utilizationEnergyMission 81161.843215942
scalar OsgEarthNet.uav[24] utilizationEnergyMaintenance 35876.96950531
scalar OsgEarthNet.uav[24] utilizationEnergyCharge 116325.71337891
scalar OsgEarthNet.uav[24] utilizationEnergyOverdrawMission 0
scalar OsgEarthNet.uav[24] utilizationEnergyOverdrawMaintenance 0
scalar OsgEarthNet.uav[24] utilizationCountMissions 25
scalar OsgEarthNet.uav[24] utilizationCountManeuversMission 276
scalar OsgEarthNet.uav[24] utilizationCountManeuversMaintenance 50
scalar OsgEarthNet.uav[24] utilizationCountChargeState 25
scalar OsgEarthNet.uav[24] utilizationCountOverdrawnAfterMission 0
scalar OsgEarthNet.uav[24] utilizationCountIdleState 26
scalar OsgEarthNet.uav[24] utilizationFail 0
scalar OsgEarthNet.uav[24] simulationTime 259200
scalar OsgEarthNet.uav[25] utilizationSecMission 694.00169469977
scalar OsgEarthNet.uav[25] utilizationSecMaintenance 338.49695459722
scalar OsgEarthNet.uav[25] utilizationSecCharge 3660
scalar OsgEarthNet.uav[25] utilizationSecIdle 254507.5003507
scalar OsgEarthNet.uav[25] utilizationEnergyMission 3011.4880218506
scalar OsgEarthNet.uav[25] utilizationEnergyMaintenance 1517.9315910339
scalar OsgEarthNet.uav[25] utilizationEnergyCharge 4529.4184570312
scalar OsgEarthNet.uav[25] utilizationEnergyOverdrawMission 0
scalar OsgEarthNet.uav[25] utilizationEnergyOverdrawMaintenance 0
scalar OsgEarthNet.uav[25] utilizationCountMissions 1
scalar OsgEarthNet.uav[25] utilizationCountManeuversMission 13
scalar OsgEarthNet.uav[25] utilizationCountManeuversMaintenance 2
scalar OsgEarthNet.uav[25] utilizationCountChargeState 1
scalar OsgEarthNet.uav[25] utilizationCountOverdrawnAfterMission 0
scalar OsgEarthNet.uav[25] utilizationCountIdleState 2
scalar OsgEarthNet.uav[25] utilizationFail 0
scalar OsgEarthNet.uav[25] simulationTime 259200
scalar OsgEarthNet.uav[26] utilizationSecMission 28298.115483819
scalar OsgEarthNet.uav[26] utilizationSecMaintenance 13089.743703036
scalar OsgEarthNet.uav[26] utilizationSecCharge 147830
scalar OsgEarthNet.uav[26] utilizationSecIdle 69982.139813144
scalar OsgEarthNet.uav[26] utilizationEnergyMission 129686.73577881
scalar OsgEarthNet.uav[26] utilizationEnergyMaintenance 59752.461956568
scalar OsgEarthNet.uav[26] utilizationEnergyCharge 184779.64013672
scalar OsgEarthNet.uav[26] utilizationEnergyOverdrawMission 0
scalar OsgEarthNet.uav[26] utilizationEnergyOverdrawMaintenance 0
scalar OsgEarthNet.uav[26] utilizationCountMissions 41
scalar OsgEarthNet.uav[26] utilizationCountManeuversMission 460
scalar OsgEarthNet.uav[26] utilizationCountManeuversMaintenance 82
scalar OsgEarthNet.uav[26] utilizationCountChargeState 40
scalar OsgEarthNet.uav[26] utilizationCountOverdrawnAfterMission 0
scalar OsgEarthNet.uav[26] utilizationCountIdleState 41
scalar OsgEarthNet.uav[26] utilizationFail 0
scalar OsgEarthNet.uav[26] simulationTime 259200
scalar OsgEarthNet.uav[27] utilizationSecMission 29645.453830081
scalar OsgEarthNet.uav[27] utilizationSecMaintenance 13993.453803773
scalar OsgEarthNet.uav[27] utilizationSecCharge 156718.69820395
scalar OsgEarthNet.uav[27] utilizationSecIdle 58842.393162198
scalar OsgEarthNet.uav[27] utilizationEnergyMission 136443.24121094
scalar OsgEarthNet.uav[27] utilizationEnergyMaintenance 64803.739810944
scalar OsgEarthNet.uav[27] utilizationEnergyCharge 196491.37902832
scalar OsgEarthNet.uav[27] utilizationEnergyOverdrawMission 0
scalar OsgEarthNet.uav[27] utilizationEnergyOverdrawMaintenance 0
scalar OsgEarthNet.uav[27] utilizationCountMissions 43
scalar OsgEarthNet.uav[27] utilizationCountManeuversMission 490
scalar OsgEarthNet.uav[27] utilizationCountManeuversMaintenance 86
scalar OsgEarthNet.uav[27] utilizationCountChargeState 43
scalar OsgEarthNet.uav[27] utilizationCountOverdrawnAfterMission 0
scalar OsgEarthNet.uav[27] utilizationCountIdleState 43
scalar OsgEarthNet.uav[27] utilizationFail 0
scalar OsgEarthNet.uav[27] simulationTime 259200
scalar OsgEarthNet.uav[28] utilizationSecMission 887.1741082606
scalar OsgEarthNet.uav[28] utilizationSecMaintenance 148.2728194454
scalar OsgEarthNet.uav[28] utilizationSecCharge 3860
scalar OsgEarthNet.uav[28] utilizationSecIdle 254304.55207229
scalar OsgEarthNet.uav[28] utilizationEnergyMission 4314.0090637207
scalar OsgEarthNet.uav[28] utilizationEnergyMaintenance 590.75896453857
scalar OsgEarthNet.uav[28] utilizationEnergyCharge 4869.9267578125
scalar OsgEarthNet.uav[28] utilizationEnergyOverdrawMission 0
scalar OsgEarthNet.uav[28] utilizationEnergyOverdrawMaintenance 0
scalar OsgEarthNet.uav[28] utilizationCountMissions 1
scalar OsgEarthNet.uav[28] utilizationCountManeuversMission 14
scalar OsgEarthNet.uav[28] utilizationCountManeuversMaintenance 2
scalar OsgEarthNet.uav[28] utilizationCountChargeState 1
scalar OsgEarthNet.uav[28] utilizationCountOverdrawnAfterMission 0
scalar OsgEarthNet.uav[28] utilizationCountIdleState 2
scalar OsgEarthNet.uav[28] utilizationFail 0
scalar OsgEarthNet.uav[28] simulationTime 259200
scalar OsgEarthNet.uav[29] utilizationSecMission 23613.095507095
scalar OsgEarthNet.uav[29] utilizationSecMaintenance 12741.393840337
scalar OsgEarthNet.uav[29] utilizationSecCharge 133350
scalar OsgEarthNet.uav[29] utilizationSecIdle 89495.509652568
scalar OsgEarthNet.uav[29] utilizationEnergyMission 108963.2049485
scalar OsgEarthNet.uav[29] utilizationEnergyMaintenance 59405.010555267
scalar OsgEarthNet.uav[29] utilizationEnergyCharge 166914.92333984
scalar OsgEarthNet.uav[29] utilizationEnergyOverdrawMission 0
scalar OsgEarthNet.uav[29] utilizationEnergyOverdrawMaintenance 0
scalar OsgEarthNet.uav[29] utilizationCountMissions 36
scalar OsgEarthNet.uav[29] utilizationCountManeuversMission 397
scalar OsgEarthNet.uav[29] utilizationCountManeuversMaintenance 73
scalar OsgEarthNet.uav[29] utilizationCountChargeState 36
scalar OsgEarthNet.uav[29] utilizationCountOverdrawnAfterMission 0
scalar OsgEarthNet.uav[29] utilizationCountIdleState 37
scalar OsgEarthNet.uav[29] utilizationFail 0
scalar OsgEarthNet.uav[29] simulationTime 259200
scalar OsgEarthNet.uav[30] utilizationSecMission 702.6942798579
scalar OsgEarthNet.uav[30] utilizationSecMaintenance 282.29565405678
scalar OsgEarthNet.uav[30] utilizationSecCharge 3580
scalar OsgEarthNet.uav[30] utilizationSecIdle 254635.00906609
scalar OsgEarthNet.uav[30] utilizationEnergyMission 3094.7866668701
scalar OsgEarthNet.uav[30] utilizationEnergyMaintenance 1319.9075431824
scalar OsgEarthNet.uav[30] utilizationEnergyCharge 4414.69921875
scalar OsgEarthNet.uav[30] utilizationEnergyOverdrawMission 0
scalar OsgEarthNet.uav[30] utilizationEnergyOverdrawMaintenance 0
scalar OsgEarthNet.uav[30] utilizationCountMissions 1
scalar OsgEarthNet.uav[30] utilizationCountManeuversMission 10
scalar OsgEarthNet.uav[30] utilizationCountManeuversMaintenance 2
scalar OsgEarthNet.uav[30] utilizationCountChargeState 1
scalar OsgEarthNet.uav[30] utilizationCountOverdrawnAfterMission 0
scalar OsgEarthNet.uav[30] utilizationCountIdleState 2
scalar OsgEarthNet.uav[30] utilizationFail 0
scalar OsgEarthNet.uav[30] simulationTime 259200
scalar OsgEarthNet.uav[31] utilizationSecMission 26761.393791662
scalar OsgEarthNet.uav[31] utilizationSecMaintenance 15195.378397252
scalar OsgEarthNet.uav[31] utilizationSecCharge 153663.67180651
scalar OsgEarthNet.uav[31] utilizationSecIdle 63579.555004578
scalar OsgEarthNet.uav[31] utilizationEnergyMission 123229.62284851
scalar OsgEarthNet.uav[31] utilizationEnergyMaintenance 71102.075382233
scalar OsgEarthNet.uav[31] utilizationEnergyCharge 193062.69091797
scalar OsgEarthNet.uav[31] utilizationEnergyOverdrawMission 0
scalar OsgEarthNet.uav[31] utilizationEnergyOverdrawMaintenance 0
scalar OsgEarthNet.uav[31] utilizationCountMissions 42
scalar OsgEarthNet.uav[31] utilizationCountManeuversMission 443
scalar OsgEarthNet.uav[31] utilizationCountManeuversMaintenance 84
scalar OsgEarthNet.uav[31] utilizationCountChargeState 42
scalar OsgEarthNet.uav[31] utilizationCountOverdrawnAfterMission 0
scalar OsgEarthNet.uav[31] utilizationCountIdleState 42
scalar OsgEarthNet.uav[31] utilizationFail 0
scalar OsgEarthNet.uav[31] simulationTime 259200
scalar OsgEarthNet.uav[32] utilizationSecMission 946.1545473523
scalar OsgEarthNet.uav[32] utilizationSecMaintenance 162.42799022119
scalar OsgEarthNet.uav[32] utilizationSecCharge 3840
scalar OsgEarthNet.uav[32] utilizationSecIdle 254251.41646243
scalar OsgEarthNet.uav[32] utilizationEnergyMission 4063.7356567383
scalar OsgEarthNet.uav[32] utilizationEnergyMaintenance 753.43846893311
scalar OsgEarthNet.uav[32] utilizationEnergyCharge 4827.8232421875
scalar OsgEarthNet.uav[32] utilizationEnergyOverdrawMission 0
scalar OsgEarthNet.uav[32] utilizationEnergyOverdrawMaintenance 0
scalar OsgEarthNet.uav[32] utilizationCountMissions 1
scalar OsgEarthNet.uav[32] utilizationCountManeuversMission 15
scalar OsgEarthNet.uav[32] utilizationCountManeuversMaintenance 2
scalar OsgEarthNet.uav[32] utilizationCountChargeState 1
scalar OsgEarthNet.uav[32] utilizationCountOverdrawnAfterMission 0
scalar OsgEarthNet.uav[32] utilizationCountIdleState 2
scalar OsgEarthNet.uav[32] utilizationFail 0
scalar OsgEarthNet.uav[32] simulationTime 259200
scalar OsgEarthNet.uav[33] utilizationSecMission 645.47405733167
scalar OsgEarthNet.uav[33] utilizationSecMaintenance 393.86419216954
scalar OsgEarthNet.uav[33] utilizationSecCharge 3920
scalar OsgEarthNet.uav[33] utilizationSecIdle 254240.6607505
scalar OsgEarthNet.uav[33] utilizationEnergyMission 3179.7002258301
scalar OsgEarthNet.uav[33] utilizationEnergyMaintenance 1765.9468307495
scalar OsgEarthNet.uav[33] utilizationEnergyCharge 5048.76953125
scalar OsgEarthNet.uav[33] utilizationEnergyOverdrawMission 0
scalar OsgEarthNet.uav[33] utilizationEnergyOverdrawMaintenance 0
scalar OsgEarthNet.uav[33] utilizationCountMissions 1
scalar OsgEarthNet.uav[33] utilizationCountManeuversMission 10
scalar OsgEarthNet.uav[33] utilizationCountManeuversMaintenance 2
scalar OsgEarthNet.uav[33] utilizationCountChargeState 1
scalar OsgEarthNet.uav[33] utilizationCountOverdrawnAfterMission 0
scalar OsgEarthNet.uav[33] utilizationCountIdleState 2
scalar OsgEarthNet.uav[33] utilizationFail 0
scalar OsgEarthNet.uav[33] simulationTime 259200
scalar OsgEarthNet.uav[34] utilizationSecMission 21584.200338388
scalar OsgEarthNet.uav[34] utilizationSecMaintenance 9863.6667218333
scalar OsgEarthNet.uav[34] utilizationSecCharge 115255.7350571
scalar OsgEarthNet.uav[34] utilizationSecIdle 112496.39688268
scalar OsgEarthNet.uav[34] utilizationEnergyMission 99299.041007996
scalar OsgEarthNet.uav[34] utilizationEnergyMaintenance 46423.121566772
scalar OsgEarthNet.uav[34] utilizationEnergyCharge 145409.8828125
scalar OsgEarthNet.uav[34] utilizationEnergyOverdrawMission 0
scalar OsgEarthNet.uav[34] utilizationEnergyOverdrawMaintenance 0
scalar OsgEarthNet.uav[34] utilizationCountMissions 31
scalar OsgEarthNet.uav[34] utilizationCountManeuversMission 346
scalar OsgEarthNet.uav[34] utilizationCountManeuversMaintenance 62
scalar OsgEarthNet.uav[34] utilizationCountChargeState 31
scalar OsgEarthNet.uav[34] utilizationCountOverdrawnAfterMission 0
scalar OsgEarthNet.uav[34] utilizationCountIdleState 31
scalar OsgEarthNet.uav[34] utilizationFail 0
scalar OsgEarthNet.uav[34] simulationTime 259200
scalar OsgEarthNet.uav[35] utilizationSecMission 28643.273044672
scalar OsgEarthNet.uav[35] utilizationSecMaintenance 13405.272996611
scalar OsgEarthNet.uav[35] utilizationSecCharge 153190
scalar OsgEarthNet.uav[35] utilizationSecIdle 63961.452958717
scalar OsgEarthNet.uav[35] utilizationEnergyMission 132082.83794633
scalar OsgEarthNet.uav[35] utilizationEnergyMaintenance 63080.051429749
scalar OsgEarthNet.uav[35] utilizationEnergyCharge 192355.51098633
scalar OsgEarthNet.uav[35] utilizationEnergyOverdrawMission 0
scalar OsgEarthNet.uav[35] utilizationEnergyOverdrawMaintenance 0
scalar OsgEarthNet.uav[35] utilizationCountMissions 41
scalar OsgEarthNet.uav[35] utilizationCountManeuversMission 467
scalar OsgEarthNet.uav[35] utilizationCountManeuversMaintenance 83
scalar OsgEarthNet.uav[35] utilizationCountChargeState 41
scalar OsgEarthNet.uav[35] utilizationCountOverdrawnAfterMission 0
scalar OsgEarthNet.uav[35] utilizationCountIdleState 42
scalar OsgEarthNet.uav[35] utilizationFail 0
scalar OsgEarthNet.uav[35] simulationTime 259200
scalar OsgEarthNet.uav[36] utilizationSecMission 684.4732299383
scalar OsgEarthNet.uav[36] utilizationSecMaintenance 298.56834692969
scalar OsgEarthNet.uav[36] utilizationSecCharge 3710
scalar OsgEarthNet.uav[36] utilizationSecIdle 254506.95742313
scalar OsgEarthNet.uav[36] utilizationEnergyMission 3162.7336502075
scalar OsgEarthNet.uav[36] utilizationEnergyMaintenance 1429.3908309937
scalar OsgEarthNet.uav[36] utilizationEnergyCharge 4592.1254882812
scalar OsgEarthNet.uav[36] utilizationEnergyOverdrawMission 0
scalar OsgEarthNet.uav[36] utilizationEnergyOverdrawMaintenance 0
scalar OsgEarthNet.uav[36] utilizationCountMissions 1
scalar OsgEarthNet.uav[36] utilizationCountManeuversMission 11
scalar OsgEarthNet.uav[36] utilizationCountManeuversMaintenance 2
scalar OsgEarthNet.uav[36] utilizationCountChargeState 1
scalar OsgEarthNet.uav[36] utilizationCountOverdrawnAfterMission 0
scalar OsgEarthNet.uav[36] utilizationCountIdleState 2
scalar OsgEarthNet.uav[36] utilizationFail 0
scalar OsgEarthNet.uav[36] simulationTime 259200
scalar OsgEarthNet.uav[37] utilizationSecMission 25844.433951014
scalar OsgEarthNet.uav[37] utilizationSecMaintenance 12327.8894788
scalar OsgEarthNet.uav[37] utilizationSecCharge 141520
scalar OsgEarthNet.uav[37] utilizationSecIdle 79507.675570186
scalar OsgEarthNet.uav[37] utilizationEnergyMission 119494.570755
scalar OsgEarthNet.uav[37] utilizationEnergyMaintenance 58237.101127625
scalar OsgEarthNet.uav[37] utilizationEnergyCharge 177596.13085938
scalar OsgEarthNet.uav[37] utilizationEnergyOverdrawMission 0
scalar OsgEarthNet.uav[37] utilizationEnergyOverdrawMaintenance 0
scalar OsgEarthNet.uav[37] utilizationCountMissions 38
scalar OsgEarthNet.uav[37] utilizationCountManeuversMission 423
scalar OsgEarthNet.uav[37] utilizationCountManeuversMaintenance 76
scalar OsgEarthNet.uav[37] utilizationCountChargeState 38
scalar OsgEarthNet.uav[37] utilizationCountOverdrawnAfterMission 0
scalar OsgEarthNet.uav[37] utilizationCountIdleState 39
scalar OsgEarthNet.uav[37] utilizationFail 0
scalar OsgEarthNet.uav[37] simulationTime 259200
scalar OsgEarthNet.uav[38] utilizationSecMission 694.00169469977
scalar OsgEarthNet.uav[38] utilizationSecMaintenance 338.49695459722
scalar OsgEarthNet.uav[38] utilizationSecCharge 3850
scalar OsgEarthNet.uav[38] utilizationSecIdle 254317.5003507
scalar OsgEarthNet.uav[38] utilizationEnergyMission 3225.8307495117
scalar OsgEarthNet.uav[38] utilizationEnergyMaintenance 1627.2120475769
scalar OsgEarthNet.uav[38] utilizationEnergyCharge 4853.0444335938
scalar OsgEarthNet.uav[38] utilizationEnergyOverdrawMission 0
scalar OsgEarthNet.uav[38] utilizationEnergyOverdrawMaintenance 0
scalar OsgEarthNet.uav[38] utilizationCountMissions 1
scalar OsgEarthNet.uav[38] utilizationCountManeuversMission 13
scalar OsgEarthNet.uav[38] utilizationCountManeuversMaintenance 2
scalar OsgEarthNet.uav[38] utilizationCountChargeState 1
scalar OsgEarthNet.uav[38] utilizationCountOverdrawnAfterMission 0
scalar OsgEarthNet.uav[38] utilizationCountIdleState 2
scalar OsgEarthNet.uav[38] utilizationFail 0
scalar OsgEarthNet.uav[38] simulationTime 259200
scalar OsgEarthNet.uav[39] utilizationSecMission 25943.445134233
scalar OsgEarthNet.uav[39] utilizationSecMaintenance 10962.320673724
scalar OsgEarthNet.uav[39] utilizationSecCharge 131809.23489906
scalar OsgEarthNet.uav[39] utilizationSecIdle 90484.998292979
scalar OsgEarthNet.uav[39] utilizationEnergyMission 118965.21270752
scalar OsgEarthNet.uav[39] utilizationEnergyMaintenance 50644.199367523
scalar OsgEarthNet.uav[39] utilizationEnergyCharge 166088.87902832
scalar OsgEarthNet.uav[39] utilizationEnergyOverdrawMission 0
scalar OsgEarthNet.uav[39] utilizationEnergyOverdrawMaintenance 0
scalar OsgEarthNet.uav[39] utilizationCountMissions 36
scalar OsgEarthNet.uav[39] utilizationCountManeuversMission 423
scalar OsgEarthNet.uav[39] utilizationCountManeuversMaintenance 72
scalar OsgEarthNet.uav[39] utilizationCountChargeState 36
scalar OsgEarthNet.uav[39] utilizationCountOverdrawnAfterMission 0
scalar OsgEarthNet.uav[39] utilizationCountIdleState 36
scalar OsgEarthNet.uav[39] utilizationFail 0
scalar OsgEarthNet.uav[39] simulationTime 259200
scalar OsgEarthNet.uav[40] utilizationSecMission 595.61789681617
scalar OsgEarthNet.uav[40] utilizationSecMaintenance 462.68687137477
scalar OsgEarthNet.uav[40] utilizationSecCharge 3810
scalar OsgEarthNet.uav[40] utilizationSecIdle 254331.69423181
scalar OsgEarthNet.uav[40] utilizationEnergyMission 2772.6248168945
scalar OsgEarthNet.uav[40] utilizationEnergyMaintenance 2208.870677948
scalar OsgEarthNet.uav[40] utilizationEnergyCharge 4812.3139648438
scalar OsgEarthNet.uav[40] utilizationEnergyOverdrawMission 0
scalar OsgEarthNet.uav[40] utilizationEnergyOverdrawMaintenance 0
scalar OsgEarthNet.uav[40] utilizationCountMissions 1
scalar OsgEarthNet.uav[40] utilizationCountManeuversMission 10
scalar OsgEarthNet.uav[40] utilizationCountManeuversMaintenance 2
scalar OsgEarthNet.uav[40] utilizationCountChargeState 1
scalar OsgEarthNet.uav[40] utilizationCountOverdrawnAfterMission 0
scalar OsgEarthNet.uav[40] utilizationCountIdleState 2
scalar OsgEarthNet.uav[40] utilizationFail 0
scalar OsgEarthNet.uav[40] simulationTime 259200
scalar OsgEarthNet.uav[41] utilizationSecMission 24037.331908568
scalar OsgEarthNet.uav[41] utilizationSecMaintenance 14248.47333116
scalar OsgEarthNet.uav[41] utilizationSecCharge 141758.30823718
scalar OsgEarthNet.uav[41] utilizationSecIdle 79155.885523089
scalar OsgEarthNet.uav[41] utilizationEnergyMission 111894.10433578
scalar OsgEarthNet.uav[41] utilizationEnergyMaintenance 67329.404590607
scalar OsgEarthNet.uav[41] utilizationEnergyCharge 178955.38916016
scalar OsgEarthNet.uav[41] utilizationEnergyOverdrawMission 0
scalar OsgEarthNet.uav[41] utilizationEnergyOverdrawMaintenance 0
scalar OsgEarthNet.uav[41] utilizationCountMissions 38
scalar OsgEarthNet.uav[41] utilizationCountManeuversMission 406
scalar OsgEarthNet.uav[41] utilizationCountManeuversMaintenance 76
scalar OsgEarthNet.uav[41] utilizationCountChargeState 38
scalar OsgEarthNet.uav[41] utilizationCountOverdrawnAfterMission 0
scalar OsgEarthNet.uav[41] utilizationCountIdleState 38
scalar OsgEarthNet.uav[41] utilizationFail 0
scalar OsgEarthNet.uav[41] simulationTime 259200
scalar OsgEarthNet.uav[42] utilizationSecMission 694.00169469977
scalar OsgEarthNet.uav[42] utilizationSecMaintenance 338.49695459722
scalar OsgEarthNet.uav[42] utilizationSecCharge 3820
scalar OsgEarthNet.uav[42] utilizationSecIdle 254347.5003507
scalar OsgEarthNet.uav[42] utilizationEnergyMission 3258.8274383545
scalar OsgEarthNet.uav[42] utilizationEnergyMaintenance 1542.4094352722
scalar OsgEarthNet.uav[42] utilizationEnergyCharge 4801.2387695312
scalar OsgEarthNet.uav[42] utilizationEnergyOverdrawMission 0
scalar OsgEarthNet.uav[42] utilizationEnergyOverdrawMaintenance 0
scalar OsgEarthNet.uav[42] utilizationCountMissions 1
scalar OsgEarthNet.uav[42] utilizationCountManeuversMission 13
scalar OsgEarthNet.uav[42] utilizationCountManeuversMaintenance 2
scalar OsgEarthNet.uav[42] utilizationCountChargeState 1
scalar OsgEarthNet.uav[42] utilizationCountOverdrawnAfterMission 0
scalar OsgEarthNet.uav[42] utilizationCountIdleState 2
scalar OsgEarthNet.uav[42] utilizationFail 0
scalar OsgEarthNet.uav[42] simulationTime 259200
scalar OsgEarthNet.uav[43] utilizationSecMission 702.6942798579
scalar OsgEarthNet.uav[43] utilizationSecMaintenance 282.29565405678
scalar OsgEarthNet.uav[43] utilizationSecCharge 3710
scalar OsgEarthNet.uav[43] utilizationSecIdle 254505.00906609
scalar OsgEarthNet.uav[43] utilizationEnergyMission 3323.189956665
scalar OsgEarthNet.uav[43] utilizationEnergyMaintenance 1326.3873710632
scalar OsgEarthNet.uav[43] utilizationEnergyCharge 4649.5732421875
scalar OsgEarthNet.uav[43] utilizationEnergyOverdrawMission 0
scalar OsgEarthNet.uav[43] utilizationEnergyOverdrawMaintenance 0
scalar OsgEarthNet.uav[43] utilizationCountMissions 1
scalar OsgEarthNet.uav[43] utilizationCountManeuversMission 10
scalar OsgEarthNet.uav[43] utilizationCountManeuversMaintenance 2
scalar OsgEarthNet.uav[43] utilizationCountChargeState 1
scalar OsgEarthNet.uav[43] utilizationCountOverdrawnAfterMission 0
scalar OsgEarthNet.uav[43] utilizationCountIdleState 2
scalar OsgEarthNet.uav[43] utilizationFail 0
scalar OsgEarthNet.uav[43] simulationTime 259200
scalar OsgEarthNet.uav[44] utilizationSecMission 26829.973100122
scalar OsgEarthNet.uav[44] utilizationSecMaintenance 14150.828518694
scalar OsgEarthNet.uav[44] utilizationSecCharge 150100
scalar OsgEarthNet.uav[44] utilizationSecIdle 68119.197381184
scalar OsgEarthNet.uav[44] utilizationEnergyMission 124611.56903076
scalar OsgEarthNet.uav[44] utilizationEnergyMaintenance 65167.353359222
scalar OsgEarthNet.uav[44] utilizationEnergyCharge 188880.00244141
scalar OsgEarthNet.uav[44] utilizationEnergyOverdrawMission 0
scalar OsgEarthNet.uav[44] utilizationEnergyOverdrawMaintenance 0
scalar OsgEarthNet.uav[44] utilizationCountMissions 40
scalar OsgEarthNet.uav[44] utilizationCountManeuversMission 447
scalar OsgEarthNet.uav[44] utilizationCountManeuversMaintenance 80
scalar OsgEarthNet.uav[44] utilizationCountChargeState 40
scalar OsgEarthNet.uav[44] utilizationCountOverdrawnAfterMission 0
scalar OsgEarthNet.uav[44] utilizationCountIdleState 41
scalar OsgEarthNet.uav[44] utilizationFail 0
scalar OsgEarthNet.uav[44] simulationTime 259200
scalar OsgEarthNet.uav[45] utilizationSecMission 8011.4428392314
scalar OsgEarthNet.uav[45] utilizationSecMaintenance 4048.2315714528
scalar OsgEarthNet.uav[45] utilizationSecCharge 44660
scalar OsgEarthNet.uav[45] utilizationSecIdle 202480.32458932
scalar OsgEarthNet.uav[45] utilizationEnergyMission 37056.219062805
scalar OsgEarthNet.uav[45] utilizationEnergyMaintenance 18963.308273315
scalar OsgEarthNet.uav[45] utilizationEnergyCharge 56065.262207031
scalar OsgEarthNet.uav[45] utilizationEnergyOverdrawMission 0
scalar OsgEarthNet.uav[45] utilizationEnergyOverdrawMaintenance 0
scalar OsgEarthNet.uav[45] utilizationCountMissions 12
scalar OsgEarthNet.uav[45] utilizationCountManeuversMission 131
scalar OsgEarthNet.uav[45] utilizationCountManeuversMaintenance 24
scalar OsgEarthNet.uav[45] utilizationCountChargeState 12
scalar OsgEarthNet.uav[45] utilizationCountOverdrawnAfterMission 0
scalar OsgEarthNet.uav[45] utilizationCountIdleState 13
scalar OsgEarthNet.uav[45] utilizationFail 0
scalar OsgEarthNet.uav[45] simulationTime 259200
scalar OsgEarthNet.uav[46] utilizationSecMission 760.62515258028
scalar OsgEarthNet.uav[46] utilizationSecMaintenance 291.95923480269
scalar OsgEarthNet.uav[46] utilizationSecCharge 3830
scalar OsgEarthNet.uav[46] utilizationSecIdle 254317.41461262
scalar OsgEarthNet.uav[46] utilizationEnergyMission 3482.9154052734
scalar OsgEarthNet.uav[46] utilizationEnergyMaintenance 1357.4758834839
scalar OsgEarthNet.uav[46] utilizationEnergyCharge 4840.3876953125
scalar OsgEarthNet.uav[46] utilizationEnergyOverdrawMission 0
scalar OsgEarthNet.uav[46] utilizationEnergyOverdrawMaintenance 0
scalar OsgEarthNet.uav[46] utilizationCountMissions 1
scalar OsgEarthNet.uav[46] utilizationCountManeuversMission 12
scalar OsgEarthNet.uav[46] utilizationCountManeuversMaintenance 2
scalar OsgEarthNet.uav[46] utilizationCountChargeState 1
scalar OsgEarthNet.uav[46] utilizationCountOverdrawnAfterMission 0
scalar OsgEarthNet.uav[46] utilizationCountIdleState 2
scalar OsgEarthNet.uav[46] utilizationFail 0
scalar OsgEarthNet.uav[46] simulationTime 259200
scalar OsgEarthNet.uav[47] utilizationSecMission 26341.376111822
scalar OsgEarthNet.uav[47] utilizationSecMaintenance 13867.923725235
scalar OsgEarthNet.uav[47] utilizationSecCharge 146571.05382305
scalar OsgEarthNet.uav[47] utilizationSecIdle 72419.645339896
scalar OsgEarthNet.uav[47] utilizationEnergyMission 120700.27165985
scalar OsgEarthNet.uav[47] utilizationEnergyMaintenance 65314.222743988
scalar OsgEarthNet.uav[47] utilizationEnergyCharge 184292.70898438
scalar OsgEarthNet.uav[47] utilizationEnergyOverdrawMission 0
scalar OsgEarthNet.uav[47] utilizationEnergyOverdrawMaintenance 0
scalar OsgEarthNet.uav[47] utilizationCountMissions 40
scalar OsgEarthNet.uav[47] utilizationCountManeuversMission 438
scalar OsgEarthNet.uav[47] utilizationCountManeuversMaintenance 80
scalar OsgEarthNet.uav[47] utilizationCountChargeState 40
scalar OsgEarthNet.uav[47] utilizationCountOverdrawnAfterMission 0
scalar OsgEarthNet.uav[47] utilizationCountIdleState 40
scalar OsgEarthNet.uav[47] utilizationFail 0
scalar OsgEarthNet.uav[47] simulationTime 259200
scalar OsgEarthNet.uav[48] utilizationSecMission 750.20472747826
scalar OsgEarthNet.uav[48] utilizationSecMaintenance 280.95484451848
scalar OsgEarthNet.uav[48] utilizationSecCharge 3780
scalar OsgEarthNet.uav[48] utilizationSecIdle 254388.839428
scalar OsgEarthNet.uav[48] utilizationEnergyMission 3384.0343017578
scalar OsgEarthNet.uav[48] utilizationEnergyMaintenance 1348.3371391296
scalar OsgEarthNet.uav[48] utilizationEnergyCharge 4732.3715820312
scalar OsgEarthNet.uav[48] utilizationEnergyOverdrawMission 0
scalar OsgEarthNet.uav[48] utilizationEnergyOverdrawMaintenance 0
scalar OsgEarthNet.uav[48] utilizationCountMissions 1
scalar OsgEarthNet.uav[48] utilizationCountManeuversMission 11
scalar OsgEarthNet.uav[48] utilizationCountManeuversMaintenance 2
scalar OsgEarthNet.uav[48] utilizationCountChargeState 1
scalar OsgEarthNet.uav[48] utilizationCountOverdrawnAfterMission 0
scalar OsgEarthNet.uav[48] utilizationCountIdleState 2
scalar OsgEarthNet.uav[48] utilizationFail 0
scalar OsgEarthNet.uav[48] simulationTime 259200
scalar OsgEarthNet.uav[49] utilizationSecMission 702.6942798579
scalar OsgEarthNet.uav[49] utilizationSecMaintenance 282.29565405678
scalar OsgEarthNet.uav[49] utilizationSecCharge 3720
scalar OsgEarthNet.uav[49] utilizationSecIdle 254495.00906609
scalar OsgEarthNet.uav[49] utilizationEnergyMission 3265.9551239014
scalar OsgEarthNet.uav[49] utilizationEnergyMaintenance 1363.2649650574
scalar OsgEarthNet.uav[49] utilizationEnergyCharge 4629.220703125
scalar OsgEarthNet.uav[49] utilizationEnergyOverdrawMission 0
scalar OsgEarthNet.uav[49] utilizationEnergyOverdrawMaintenance 0
scalar OsgEarthNet.uav[49] utilizationCountMissions 1
scalar OsgEarthNet.uav[49] utilizationCountManeuversMission 10
scalar OsgEarthNet.uav[49] utilizationCountManeuversMaintenance 2
scalar OsgEarthNet.uav[49] utilizationCountChargeState 1
scalar OsgEarthNet.uav[49] utilizationCountOverdrawnAfterMission 0
scalar OsgEarthNet.uav[49] utilizationCountIdleState 2
scalar OsgEarthNet.uav[49] utilizationFail 0
scalar OsgEarthNet.uav[49] simulationTime 259200
scalar OsgEarthNet.uav[50] utilizationSecMission 750.20472747826
scalar OsgEarthNet.uav[50] utilizationSecMaintenance 261.68051383311
scalar OsgEarthNet.uav[50] utilizationSecCharge 3760
scalar OsgEarthNet.uav[50] utilizationSecIdle 254428.11375869
scalar OsgEarthNet.uav[50] utilizationEnergyMission 3553.2375488281
scalar OsgEarthNet.uav[50] utilizationEnergyMaintenance 1194.561290741
scalar OsgEarthNet.uav[50] utilizationEnergyCharge 4747.8032226562
scalar OsgEarthNet.uav[50] utilizationEnergyOverdrawMission 0
scalar OsgEarthNet.uav[50] utilizationEnergyOverdrawMaintenance 0
scalar OsgEarthNet.uav[50] utilizationCountMissions 1
scalar OsgEarthNet.uav[50] utilizationCountManeuversMission 11
scalar OsgEarthNet.uav[50] utilizationCountManeuversMaintenance 2
scalar OsgEarthNet.uav[50] utilizationCountChargeState 1
scalar OsgEarthNet.uav[50] utilizationCountOverdrawnAfterMission 0
scalar OsgEarthNet.uav[50] utilizationCountIdleState 2
scalar OsgEarthNet.uav[50] utilizationFail 0
scalar OsgEarthNet.uav[50] simulationTime 259200
scalar OsgEarthNet.uav[51] utilizationSecMission 28308.175805982
scalar OsgEarthNet.uav[51] utilizationSecMaintenance 11967.55047764
scalar OsgEarthNet.uav[51] utilizationSecCharge 145300
scalar OsgEarthNet.uav[51] utilizationSecIdle 73624.272716378
scalar OsgEarthNet.uav[51] utilizationEnergyMission 129946.51189866
scalar OsgEarthNet.uav[51] utilizationEnergyMaintenance 55517.456256866
scalar OsgEarthNet.uav[51] utilizationEnergyCharge 182005.51025391
scalar OsgEarthNet.uav[51] utilizationEnergyOverdrawMission 0
scalar OsgEarthNet.uav[51] utilizationEnergyOverdrawMaintenance 0
scalar OsgEarthNet.uav[51] utilizationCountMissions 39
scalar OsgEarthNet.uav[51] utilizationCountManeuversMission 454
scalar OsgEarthNet.uav[51] utilizationCountManeuversMaintenance 79
scalar OsgEarthNet.uav[51] utilizationCountChargeState 39
scalar OsgEarthNet.uav[51] utilizationCountOverdrawnAfterMission 0
scalar OsgEarthNet.uav[51] utilizationCountIdleState 40
scalar OsgEarthNet.uav[51] utilizationFail 0
scalar OsgEarthNet.uav[51] simulationTime 259200
scalar OsgEarthNet.uav[52] utilizationSecMission 694.00169469977
scalar OsgEarthNet.uav[52] utilizationSecMaintenance 338.49695459722
scalar OsgEarthNet.uav[52] utilizationSecCharge 3760
scalar OsgEarthNet.uav[52] utilizationSecIdle 254407.5003507
scalar OsgEarthNet.uav[52] utilizationEnergyMission 3137.408241272
scalar OsgEarthNet.uav[52] utilizationEnergyMaintenance 1556.820690155
scalar OsgEarthNet.uav[52] utilizationEnergyCharge 4694.224609375
scalar OsgEarthNet.uav[52] utilizationEnergyOverdrawMission 0
scalar OsgEarthNet.uav[52] utilizationEnergyOverdrawMaintenance 0
scalar OsgEarthNet.uav[52] utilizationCountMissions 1
scalar OsgEarthNet.uav[52] utilizationCountManeuversMission 13
scalar OsgEarthNet.uav[52] utilizationCountManeuversMaintenance 2
scalar OsgEarthNet.uav[52] utilizationCountChargeState 1
scalar OsgEarthNet.uav[52] utilizationCountOverdrawnAfterMission 0
scalar OsgEarthNet.uav[52] utilizationCountIdleState 2
scalar OsgEarthNet.uav[52] utilizationFail 0
scalar OsgEarthNet.uav[52] simulationTime 259200
scalar OsgEarthNet.uav[53] utilizationSecMission 760.62515258028
scalar OsgEarthNet.uav[53] utilizationSecMaintenance 291.95923480269
scalar OsgEarthNet.uav[53] utilizationSecCharge 3930
scalar OsgEarthNet.uav[53] utilizationSecIdle 254217.41461262
scalar OsgEarthNet.uav[53] utilizationEnergyMission 3484.748046875
scalar OsgEarthNet.uav[53] utilizationEnergyMaintenance 1535.4791488647
scalar OsgEarthNet.uav[53] utilizationEnergyCharge 5020.2314453125
scalar OsgEarthNet.uav[53] utilizationEnergyOverdrawMission 0
scalar OsgEarthNet.uav[53] utilizationEnergyOverdrawMaintenance 0
scalar OsgEarthNet.uav[53] utilizationCountMissions 1
scalar OsgEarthNet.uav[53] utilizationCountManeuversMission 12
scalar OsgEarthNet.uav[53] utilizationCountManeuversMaintenance 2
scalar OsgEarthNet.uav[53] utilizationCountChargeState 1
scalar OsgEarthNet.uav[53] utilizationCountOverdrawnAfterMission 0
scalar OsgEarthNet.uav[53] utilizationCountIdleState 2
scalar OsgEarthNet.uav[53] utilizationFail 0
scalar OsgEarthNet.uav[53] simulationTime 259200
scalar OsgEarthNet.uav[54] utilizationSecMission 25874.973868449
scalar OsgEarthNet.uav[54] utilizationSecMaintenance 16099.764394586
scalar OsgEarthNet.uav[54] utilizationSecCharge 155410
scalar OsgEarthNet.uav[54] utilizationSecIdle 61815.260736966
scalar OsgEarthNet.uav[54] utilizationEnergyMission 119082.1699295
scalar OsgEarthNet.uav[54] utilizationEnergyMaintenance 74984.046894073
scalar OsgEarthNet.uav[54] utilizationEnergyCharge 194403.49316406
scalar OsgEarthNet.uav[54] utilizationEnergyOverdrawMission 0
scalar OsgEarthNet.uav[54] utilizationEnergyOverdrawMaintenance 0
scalar OsgEarthNet.uav[54] utilizationCountMissions 42
scalar OsgEarthNet.uav[54] utilizationCountManeuversMission 444
scalar OsgEarthNet.uav[54] utilizationCountManeuversMaintenance 84
scalar OsgEarthNet.uav[54] utilizationCountChargeState 42
scalar OsgEarthNet.uav[54] utilizationCountOverdrawnAfterMission 0
scalar OsgEarthNet.uav[54] utilizationCountIdleState 43
scalar OsgEarthNet.uav[54] utilizationFail 0
scalar OsgEarthNet.uav[54] simulationTime 259200
scalar OsgEarthNet.uav[55] utilizationSecMission 30329.138123821
scalar OsgEarthNet.uav[55] utilizationSecMaintenance 14585.167682458
scalar OsgEarthNet.uav[55] utilizationSecCharge 164113.69319372
scalar OsgEarthNet.uav[55] utilizationSecIdle 50172
scalar OsgEarthNet.uav[55] utilizationEnergyMission 139369.13490758
scalar OsgEarthNet.uav[55] utilizationEnergyMaintenance 69072.799983978
scalar OsgEarthNet.uav[55] utilizationEnergyCharge 206105.94677734
scalar OsgEarthNet.uav[55] utilizationEnergyOverdrawMission 0
scalar OsgEarthNet.uav[55] utilizationEnergyOverdrawMaintenance 0
scalar OsgEarthNet.uav[55] utilizationCountMissions 45
scalar OsgEarthNet.uav[55] utilizationCountManeuversMission 489
scalar OsgEarthNet.uav[55] utilizationCountManeuversMaintenance 89
scalar OsgEarthNet.uav[55] utilizationCountChargeState 45
scalar OsgEarthNet.uav[55] utilizationCountOverdrawnAfterMission 0
scalar OsgEarthNet.uav[55] utilizationCountIdleState 45
scalar OsgEarthNet.uav[55] utilizationFail 0
scalar OsgEarthNet.uav[55] simulationTime 259200
scalar OsgEarthNet.uav[56] utilizationSecMission 684.4732299383
scalar OsgEarthNet.uav[56] utilizationSecMaintenance 298.56834692969
scalar OsgEarthNet.uav[56] utilizationSecCharge 3720
scalar OsgEarthNet.uav[56] utilizationSecIdle 254496.95742313
scalar OsgEarthNet.uav[56] utilizationEnergyMission 3245.9532470703
scalar OsgEarthNet.uav[56] utilizationEnergyMaintenance 1420.7622909546
scalar OsgEarthNet.uav[56] utilizationEnergyCharge 4666.7202148438
scalar OsgEarthNet.uav[56] utilizationEnergyOverdrawMission 0
scalar OsgEarthNet.uav[56] utilizationEnergyOverdrawMaintenance 0
scalar OsgEarthNet.uav[56] utilizationCountMissions 1
scalar OsgEarthNet.uav[56] utilizationCountManeuversMission 11
scalar OsgEarthNet.uav[56] utilizationCountManeuversMaintenance 2
scalar OsgEarthNet.uav[56] utilizationCountChargeState 1
scalar OsgEarthNet.uav[56] utilizationCountOverdrawnAfterMission 0
scalar OsgEarthNet.uav[56] utilizationCountIdleState 2
scalar OsgEarthNet.uav[56] utilizationFail 0
scalar OsgEarthNet.uav[56] simulationTime 259200
scalar OsgEarthNet.uav[57] utilizationSecMission 24145.495977594
scalar OsgEarthNet.uav[57] utilizationSecMaintenance 12957.758979485
scalar OsgEarthNet.uav[57] utilizationSecCharge 135496.47402825
scalar OsgEarthNet.uav[57] utilizationSecIdle 86600.270014668
scalar OsgEarthNet.uav[57] utilizationEnergyMission 111391.2410202
scalar OsgEarthNet.uav[57] utilizationEnergyMaintenance 60496.634059906
scalar OsgEarthNet.uav[57] utilizationEnergyCharge 170356.08349609
scalar OsgEarthNet.uav[57] utilizationEnergyOverdrawMission 0
scalar OsgEarthNet.uav[57] utilizationEnergyOverdrawMaintenance 0
scalar OsgEarthNet.uav[57] utilizationCountMissions 37
scalar OsgEarthNet.uav[57] utilizationCountManeuversMission 402
scalar OsgEarthNet.uav[57] utilizationCountManeuversMaintenance 74
scalar OsgEarthNet.uav[57] utilizationCountChargeState 37
scalar OsgEarthNet.uav[57] utilizationCountOverdrawnAfterMission 0
scalar OsgEarthNet.uav[57] utilizationCountIdleState 37
scalar OsgEarthNet.uav[57] utilizationFail 0
scalar OsgEarthNet.uav[57] simulationTime 259200
scalar OsgEarthNet.uav[58] utilizationSecMission 28875.942242786
scalar OsgEarthNet.uav[58] utilizationSecMaintenance 14291.696226943
scalar OsgEarthNet.uav[58] utilizationSecCharge 157196.11869465
scalar OsgEarthNet.uav[58] utilizationSecIdle 58836.241835621
scalar OsgEarthNet.uav[58] utilizationEnergyMission 133591.56298828
scalar OsgEarthNet.uav[58] utilizationEnergyMaintenance 67422.883823395
scalar OsgEarthNet.uav[58] utilizationEnergyCharge 197444.57336426
scalar OsgEarthNet.uav[58] utilizationEnergyOverdrawMission 0
scalar OsgEarthNet.uav[58] utilizationEnergyOverdrawMaintenance 0
scalar OsgEarthNet.uav[58] utilizationCountMissions 43
scalar OsgEarthNet.uav[58] utilizationCountManeuversMission 451
scalar OsgEarthNet.uav[58] utilizationCountManeuversMaintenance 86
scalar OsgEarthNet.uav[58] utilizationCountChargeState 43
scalar OsgEarthNet.uav[58] utilizationCountOverdrawnAfterMission 0
scalar OsgEarthNet.uav[58] utilizationCountIdleState 43
scalar OsgEarthNet.uav[58] utilizationFail 0
scalar OsgEarthNet.uav[58] simulationTime 259200
scalar OsgEarthNet.uav[59] utilizationSecMission 760.62515258028
scalar OsgEarthNet.uav[59] utilizationSecMaintenance 291.95923480269
scalar OsgEarthNet.uav[59] utilizationSecCharge 3780
scalar OsgEarthNet.uav[59] utilizationSecIdle 254367.41461262
scalar OsgEarthNet.uav[59] utilizationEnergyMission 3405.5696716309
scalar OsgEarthNet.uav[59] utilizationEnergyMaintenance 1318.3874130249
scalar OsgEarthNet.uav[59] utilizationEnergyCharge 4723.955078125
scalar OsgEarthNet.uav[59] utilizationEnergyOverdrawMission 0
scalar OsgEarthNet.uav[59] utilizationEnergyOverdrawMaintenance 0
scalar OsgEarthNet.uav[59] utilizationCountMissions 1
scalar OsgEarthNet.uav[59] utilizationCountManeuversMission 12
scalar OsgEarthNet.uav[59] utilizationCountManeuversMaintenance 2
scalar OsgEarthNet.uav[59] utilizationCountChargeState 1
scalar OsgEarthNet.uav[59] utilizationCountOverdrawnAfterMission 0
scalar OsgEarthNet.uav[59] utilizationCountIdleState 2
scalar OsgEarthNet.uav[59] utilizationFail 0
scalar OsgEarthNet.uav[59] simulationTime 259200
scalar OsgEarthNet.uav[60] utilizationSecMission 29402.703465802
scalar OsgEarthNet.uav[60] utilizationSecMaintenance 13346.408610283
scalar OsgEarthNet.uav[60] utilizationSecCharge 160070
scalar OsgEarthNet.uav[60] utilizationSecIdle 56380.886923915
scalar OsgEarthNet.uav[60] utilizationEnergyMission 137173.07478333
scalar OsgEarthNet.uav[60] utilizationEnergyMaintenance 63534.771865845
scalar OsgEarthNet.uav[60] utilizationEnergyCharge 200710.71435547
scalar OsgEarthNet.uav[60] utilizationEnergyOverdrawMission 0
scalar OsgEarthNet.uav[60] utilizationEnergyOverdrawMaintenance 0
scalar OsgEarthNet.uav[60] utilizationCountMissions 43
scalar OsgEarthNet.uav[60] utilizationCountManeuversMission 470
scalar OsgEarthNet.uav[60] utilizationCountManeuversMaintenance 86
scalar OsgEarthNet.uav[60] utilizationCountChargeState 43
scalar OsgEarthNet.uav[60] utilizationCountOverdrawnAfterMission 0
scalar OsgEarthNet.uav[60] utilizationCountIdleState 44
scalar OsgEarthNet.uav[60] utilizationFail 0
scalar OsgEarthNet.uav[60] simulationTime 259200
scalar OsgEarthNet.uav[61] utilizationSecMission 30510.755708136
scalar OsgEarthNet.uav[61] utilizationSecMaintenance 13124.792159142
scalar OsgEarthNet.uav[61] utilizationSecCharge 161560
scalar OsgEarthNet.uav[61] utilizationSecIdle 54004.451132723
scalar OsgEarthNet.uav[61] utilizationEnergyMission 141558.47605896
scalar OsgEarthNet.uav[61] utilizationEnergyMaintenance 61493.452133179
scalar OsgEarthNet.uav[61] utilizationEnergyCharge 202962
scalar OsgEarthNet.uav[61] utilizationEnergyOverdrawMission 0
scalar OsgEarthNet.uav[61] utilizationEnergyOverdrawMaintenance 0
scalar OsgEarthNet.uav[61] utilizationCountMissions 43
scalar OsgEarthNet.uav[61] utilizationCountManeuversMission 481
scalar OsgEarthNet.uav[61] utilizationCountManeuversMaintenance 86
scalar OsgEarthNet.uav[61] utilizationCountChargeState 43
scalar OsgEarthNet.uav[61] utilizationCountOverdrawnAfterMission 0
scalar OsgEarthNet.uav[61] utilizationCountIdleState 44
scalar OsgEarthNet.uav[61] utilizationFail 0
scalar OsgEarthNet.uav[61] simulationTime 259200
scalar OsgEarthNet.uav[62] utilizationSecMission 887.1741082606
scalar OsgEarthNet.uav[62] utilizationSecMaintenance 148.2728194454
scalar OsgEarthNet.uav[62] utilizationSecCharge 3810
scalar OsgEarthNet.uav[62] utilizationSecIdle 254354.55207229
scalar OsgEarthNet.uav[62] utilizationEnergyMission 4088.5007019043
scalar OsgEarthNet.uav[62] utilizationEnergyMaintenance 715.49227142334
scalar OsgEarthNet.uav[62] utilizationEnergyCharge 4816.955078125
scalar OsgEarthNet.uav[62] utilizationEnergyOverdrawMission 0
scalar OsgEarthNet.uav[62] utilizationEnergyOverdrawMaintenance 0
scalar OsgEarthNet.uav[62] utilizationCountMissions 1
scalar OsgEarthNet.uav[62] utilizationCountManeuversMission 14
scalar OsgEarthNet.uav[62] utilizationCountManeuversMaintenance 2
scalar OsgEarthNet.uav[62] utilizationCountChargeState 1
scalar OsgEarthNet.uav[62] utilizationCountOverdrawnAfterMission 0
scalar OsgEarthNet.uav[62] utilizationCountIdleState 2
scalar OsgEarthNet.uav[62] utilizationFail 0
scalar OsgEarthNet.uav[62] simulationTime 259200
scalar OsgEarthNet.uav[63] utilizationSecMission 760.62515258028
scalar OsgEarthNet.uav[63] utilizationSecMaintenance 223.6438949726
scalar OsgEarthNet.uav[63] utilizationSecCharge 3780
scalar OsgEarthNet.uav[63] utilizationSecIdle 254435.72995245
scalar OsgEarthNet.uav[63] utilizationEnergyMission 3660.5464248657
scalar OsgEarthNet.uav[63] utilizationEnergyMaintenance 1074.066204071
scalar OsgEarthNet.uav[63] utilizationEnergyCharge 4734.6147460938
scalar OsgEarthNet.uav[63] utilizationEnergyOverdrawMission 0
scalar OsgEarthNet.uav[63] utilizationEnergyOverdrawMaintenance 0
scalar OsgEarthNet.uav[63] utilizationCountMissions 1
scalar OsgEarthNet.uav[63] utilizationCountManeuversMission 12
scalar OsgEarthNet.uav[63] utilizationCountManeuversMaintenance 2
scalar OsgEarthNet.uav[63] utilizationCountChargeState 1
scalar OsgEarthNet.uav[63] utilizationCountOverdrawnAfterMission 0
scalar OsgEarthNet.uav[63] utilizationCountIdleState 2
scalar OsgEarthNet.uav[63] utilizationFail 0
scalar OsgEarthNet.uav[63] simulationTime 259200
scalar OsgEarthNet.uav[64] utilizationSecMission 29790.108455067
scalar OsgEarthNet.uav[64] utilizationSecMaintenance 14668.897100676
scalar OsgEarthNet.uav[64] utilizationSecCharge 162213.58653544
scalar OsgEarthNet.uav[64] utilizationSecIdle 52527.40690882
scalar OsgEarthNet.uav[64] utilizationEnergyMission 138672.18495941
scalar OsgEarthNet.uav[64] utilizationEnergyMaintenance 68574.121623993
scalar OsgEarthNet.uav[64] utilizationEnergyCharge 204354.49389648
scalar OsgEarthNet.uav[64] utilizationEnergyOverdrawMission 0
scalar OsgEarthNet.uav[64] utilizationEnergyOverdrawMaintenance 0
scalar OsgEarthNet.uav[64] utilizationCountMissions 44
scalar OsgEarthNet.uav[64] utilizationCountManeuversMission 495
scalar OsgEarthNet.uav[64] utilizationCountManeuversMaintenance 88
scalar OsgEarthNet.uav[64] utilizationCountChargeState 44
scalar OsgEarthNet.uav[64] utilizationCountOverdrawnAfterMission 0
scalar OsgEarthNet.uav[64] utilizationCountIdleState 44
scalar OsgEarthNet.uav[64] utilizationFail 0
scalar OsgEarthNet.uav[64] simulationTime 259200
scalar OsgEarthNet.uav[65] utilizationSecMission 31763.484012378
scalar OsgEarthNet.uav[65] utilizationSecMaintenance 12689.892681571
scalar OsgEarthNet.uav[65] utilizationSecCharge 161279.17204202
scalar OsgEarthNet.uav[65] utilizationSecIdle 53467.450264031
[...]
scalar OsgEarthNet.uav[82] utilizationEnergyMission 116620.59280396
scalar OsgEarthNet.uav[82] utilizationEnergyMaintenance 55805.739589691
scalar OsgEarthNet.uav[82] utilizationEnergyCharge 172055.8671875
scalar OsgEarthNet.uav[82] utilizationEnergyOverdrawMission 0
scalar OsgEarthNet.uav[82] utilizationEnergyOverdrawMaintenance 0
scalar OsgEarthNet.uav[82] utilizationCountMissions 37
scalar OsgEarthNet.uav[82] utilizationCountManeuversMission 421
scalar OsgEarthNet.uav[82] utilizationCountManeuversMaintenance 74
scalar OsgEarthNet.uav[82] utilizationCountChargeState 37
scalar OsgEarthNet.uav[82] utilizationCountOverdrawnAfterMission 0
scalar OsgEarthNet.uav[82] utilizationCountIdleState 38
scalar OsgEarthNet.uav[82] utilizationFail 0
scalar OsgEarthNet.uav[82] simulationTime 259200
scalar OsgEarthNet.uav[83] utilizationSecMission 1597.4022278025
scalar OsgEarthNet.uav[83] utilizationSecMaintenance 405.28177064169
scalar OsgEarthNet.uav[83] utilizationSecCharge 7450
scalar OsgEarthNet.uav[83] utilizationSecIdle 249747.31500156
scalar OsgEarthNet.uav[83] utilizationEnergyMission 7466.9322814941
scalar OsgEarthNet.uav[83] utilizationEnergyMaintenance 1866.7690048218
scalar OsgEarthNet.uav[83] utilizationEnergyCharge 9333.7041015625
scalar OsgEarthNet.uav[83] utilizationEnergyOverdrawMission 0
scalar OsgEarthNet.uav[83] utilizationEnergyOverdrawMaintenance 0
scalar OsgEarthNet.uav[83] utilizationCountMissions 2
scalar OsgEarthNet.uav[83] utilizationCountManeuversMission 25
scalar OsgEarthNet.uav[83] utilizationCountManeuversMaintenance 4
scalar OsgEarthNet.uav[83] utilizationCountChargeState 2
scalar OsgEarthNet.uav[83] utilizationCountOverdrawnAfterMission 0
scalar OsgEarthNet.uav[83] utilizationCountIdleState 3
scalar OsgEarthNet.uav[83] utilizationFail 0
scalar OsgEarthNet.uav[83] simulationTime 259200
scalar OsgEarthNet.uav[84] utilizationSecMission 27882.2325146
scalar OsgEarthNet.uav[84] utilizationSecMaintenance 12632.265260272
scalar OsgEarthNet.uav[84] utilizationSecCharge 147895.04535726
scalar OsgEarthNet.uav[84] utilizationSecIdle 70790.455867868
scalar OsgEarthNet.uav[84] utilizationEnergyMission 129331.6946106
scalar OsgEarthNet.uav[84] utilizationEnergyMaintenance 59014.802062988
scalar OsgEarthNet.uav[84] utilizationEnergyCharge 186852.28076172
scalar OsgEarthNet.uav[84] utilizationEnergyOverdrawMission 0
scalar OsgEarthNet.uav[84] utilizationEnergyOverdrawMaintenance 0
scalar OsgEarthNet.uav[84] utilizationCountMissions 40
scalar OsgEarthNet.uav[84] utilizationCountManeuversMission 447
scalar OsgEarthNet.uav[84] utilizationCountManeuversMaintenance 80
scalar OsgEarthNet.uav[84] utilizationCountChargeState 40
scalar OsgEarthNet.uav[84] utilizationCountOverdrawnAfterMission 0
scalar OsgEarthNet.uav[84] utilizationCountIdleState 40
scalar OsgEarthNet.uav[84] utilizationFail 0
scalar OsgEarthNet.uav[84] simulationTime 259200
scalar OsgEarthNet.uav[85] utilizationSecMission 694.00169469977
scalar OsgEarthNet.uav[85] utilizationSecMaintenance 338.49695459722
scalar OsgEarthNet.uav[85] utilizationSecCharge 3680
scalar OsgEarthNet.uav[85] utilizationSecIdle 254487.5003507
scalar OsgEarthNet.uav[85] utilizationEnergyMission 2982.3013381958
scalar OsgEarthNet.uav[85] utilizationEnergyMaintenance 1583.9731559753
scalar OsgEarthNet.uav[85] utilizationEnergyCharge 4566.2719726562
scalar OsgEarthNet.uav[85] utilizationEnergyOverdrawMission 0
scalar OsgEarthNet.uav[85] utilizationEnergyOverdrawMaintenance 0
scalar OsgEarthNet.uav[85] utilizationCountMissions 1
scalar OsgEarthNet.uav[85] utilizationCountManeuversMission 13
scalar OsgEarthNet.uav[85] utilizationCountManeuversMaintenance 2
scalar OsgEarthNet.uav[85] utilizationCountChargeState 1
scalar OsgEarthNet.uav[85] utilizationCountOverdrawnAfterMission 0
scalar OsgEarthNet.uav[85] utilizationCountIdleState 2
scalar OsgEarthNet.uav[85] utilizationFail 0
scalar OsgEarthNet.uav[85] simulationTime 259200
scalar OsgEarthNet.uav[86] utilizationSecMission 836.77707522227
scalar OsgEarthNet.uav[86] utilizationSecMaintenance 217.0347828456
scalar OsgEarthNet.uav[86] utilizationSecCharge 3850
scalar OsgEarthNet.uav[86] utilizationSecIdle 254296.18714193
scalar OsgEarthNet.uav[86] utilizationEnergyMission 3743.2906341553
scalar OsgEarthNet.uav[86] utilizationEnergyMaintenance 1127.761302948
scalar OsgEarthNet.uav[86] utilizationEnergyCharge 4871.0493164062
scalar OsgEarthNet.uav[86] utilizationEnergyOverdrawMission 0
scalar OsgEarthNet.uav[86] utilizationEnergyOverdrawMaintenance 0
scalar OsgEarthNet.uav[86] utilizationCountMissions 1
scalar OsgEarthNet.uav[86] utilizationCountManeuversMission 13
scalar OsgEarthNet.uav[86] utilizationCountManeuversMaintenance 2
scalar OsgEarthNet.uav[86] utilizationCountChargeState 1
scalar OsgEarthNet.uav[86] utilizationCountOverdrawnAfterMission 0
scalar OsgEarthNet.uav[86] utilizationCountIdleState 2
scalar OsgEarthNet.uav[86] utilizationFail 0
scalar OsgEarthNet.uav[86] simulationTime 259200
scalar OsgEarthNet.uav[87] utilizationSecMission 28571.518906386
scalar OsgEarthNet.uav[87] utilizationSecMaintenance 12627.955410512
scalar OsgEarthNet.uav[87] utilizationSecCharge 151968.26007185
scalar OsgEarthNet.uav[87] utilizationSecIdle 66032.264611248
scalar OsgEarthNet.uav[87] utilizationEnergyMission 132602.36431122
scalar OsgEarthNet.uav[87] utilizationEnergyMaintenance 59750.221538544
scalar OsgEarthNet.uav[87] utilizationEnergyCharge 191415.93115234
scalar OsgEarthNet.uav[87] utilizationEnergyOverdrawMission 0
scalar OsgEarthNet.uav[87] utilizationEnergyOverdrawMaintenance 0
scalar OsgEarthNet.uav[87] utilizationCountMissions 41
scalar OsgEarthNet.uav[87] utilizationCountManeuversMission 473
scalar OsgEarthNet.uav[87] utilizationCountManeuversMaintenance 82
scalar OsgEarthNet.uav[87] utilizationCountChargeState 41
scalar OsgEarthNet.uav[87] utilizationCountOverdrawnAfterMission 0
scalar OsgEarthNet.uav[87] utilizationCountIdleState 41
scalar OsgEarthNet.uav[87] utilizationFail 0
scalar OsgEarthNet.uav[87] simulationTime 259200
scalar OsgEarthNet.uav[88] utilizationSecMission 30264.501521871
scalar OsgEarthNet.uav[88] utilizationSecMaintenance 12830.629570187
scalar OsgEarthNet.uav[88] utilizationSecCharge 158138.83180917
scalar OsgEarthNet.uav[88] utilizationSecIdle 57966.036098769
scalar OsgEarthNet.uav[88] utilizationEnergyMission 141108.47654724
scalar OsgEarthNet.uav[88] utilizationEnergyMaintenance 60090.062137604
scalar OsgEarthNet.uav[88] utilizationEnergyCharge 199110.24731445
scalar OsgEarthNet.uav[88] utilizationEnergyOverdrawMission 0
scalar OsgEarthNet.uav[88] utilizationEnergyOverdrawMaintenance 0
scalar OsgEarthNet.uav[88] utilizationCountMissions 43
scalar OsgEarthNet.uav[88] utilizationCountManeuversMission 486
scalar OsgEarthNet.uav[88] utilizationCountManeuversMaintenance 86
scalar OsgEarthNet.uav[88] utilizationCountChargeState 43
scalar OsgEarthNet.uav[88] utilizationCountOverdrawnAfterMission 0
scalar OsgEarthNet.uav[88] utilizationCountIdleState 43
scalar OsgEarthNet.uav[88] utilizationFail 0
scalar OsgEarthNet.uav[88] simulationTime 259200
scalar OsgEarthNet.uav[89] utilizationSecMission 31278.949522969
scalar OsgEarthNet.uav[89] utilizationSecMaintenance 13321.11070885
scalar OsgEarthNet.uav[89] utilizationSecCharge 162277.93876818
scalar OsgEarthNet.uav[89] utilizationSecIdle 52322
scalar OsgEarthNet.uav[89] utilizationEnergyMission 145828.99175101
scalar OsgEarthNet.uav[89] utilizationEnergyMaintenance 62485.327835083
scalar OsgEarthNet.uav[89] utilizationEnergyCharge 204400.8359375
scalar OsgEarthNet.uav[89] utilizationEnergyOverdrawMission 0
scalar OsgEarthNet.uav[89] utilizationEnergyOverdrawMaintenance 0
scalar OsgEarthNet.uav[89] utilizationCountMissions 44
scalar OsgEarthNet.uav[89] utilizationCountManeuversMission 509
scalar OsgEarthNet.uav[89] utilizationCountManeuversMaintenance 87
scalar OsgEarthNet.uav[89] utilizationCountChargeState 44
scalar OsgEarthNet.uav[89] utilizationCountOverdrawnAfterMission 0
scalar OsgEarthNet.uav[89] utilizationCountIdleState 44
scalar OsgEarthNet.uav[89] utilizationFail 0
scalar OsgEarthNet.uav[89] simulationTime 259200
scalar OsgEarthNet.uav[90] utilizationSecMission 836.77707522227
scalar OsgEarthNet.uav[90] utilizationSecMaintenance 217.0347828456
scalar OsgEarthNet.uav[90] utilizationSecCharge 3580
scalar OsgEarthNet.uav[90] utilizationSecIdle 254566.18714193
scalar OsgEarthNet.uav[90] utilizationEnergyMission 3390.6500091553
scalar OsgEarthNet.uav[90] utilizationEnergyMaintenance 1042.5242424011
scalar OsgEarthNet.uav[90] utilizationEnergyCharge 4433.171875
scalar OsgEarthNet.uav[90] utilizationEnergyOverdrawMission 0
scalar OsgEarthNet.uav[90] utilizationEnergyOverdrawMaintenance 0
scalar OsgEarthNet.uav[90] utilizationCountMissions 1
scalar OsgEarthNet.uav[90] utilizationCountManeuversMission 13
scalar OsgEarthNet.uav[90] utilizationCountManeuversMaintenance 2
scalar OsgEarthNet.uav[90] utilizationCountChargeState 1
scalar OsgEarthNet.uav[90] utilizationCountOverdrawnAfterMission 0
scalar OsgEarthNet.uav[90] utilizationCountIdleState 2
scalar OsgEarthNet.uav[90] utilizationFail 0
scalar OsgEarthNet.uav[90] simulationTime 259200
scalar OsgEarthNet.uav[91] utilizationSecMission 29392.514374465
scalar OsgEarthNet.uav[91] utilizationSecMaintenance 14098.920920733
scalar OsgEarthNet.uav[91] utilizationSecCharge 158842.63741981
scalar OsgEarthNet.uav[91] utilizationSecIdle 56865.92628499
scalar OsgEarthNet.uav[91] utilizationEnergyMission 134470.94813538
scalar OsgEarthNet.uav[91] utilizationEnergyMaintenance 66652.675613403
scalar OsgEarthNet.uav[91] utilizationEnergyCharge 200426.38085938
scalar OsgEarthNet.uav[91] utilizationEnergyOverdrawMission 0
scalar OsgEarthNet.uav[91] utilizationEnergyOverdrawMaintenance 0
scalar OsgEarthNet.uav[91] utilizationCountMissions 43
scalar OsgEarthNet.uav[91] utilizationCountManeuversMission 482
scalar OsgEarthNet.uav[91] utilizationCountManeuversMaintenance 86
scalar OsgEarthNet.uav[91] utilizationCountChargeState 43
scalar OsgEarthNet.uav[91] utilizationCountOverdrawnAfterMission 0
scalar OsgEarthNet.uav[91] utilizationCountIdleState 43
scalar OsgEarthNet.uav[91] utilizationFail 0
scalar OsgEarthNet.uav[91] simulationTime 259200
scalar OsgEarthNet.uav[92] utilizationSecMission 2891.0985285467
scalar OsgEarthNet.uav[92] utilizationSecMaintenance 1213.1179598036
scalar OsgEarthNet.uav[92] utilizationSecCharge 15110
scalar OsgEarthNet.uav[92] utilizationSecIdle 239985.78251165
scalar OsgEarthNet.uav[92] utilizationEnergyMission 13253.732345581
scalar OsgEarthNet.uav[92] utilizationEnergyMaintenance 5525.4659690857
scalar OsgEarthNet.uav[92] utilizationEnergyCharge 19001.121582031
scalar OsgEarthNet.uav[92] utilizationEnergyOverdrawMission 0
scalar OsgEarthNet.uav[92] utilizationEnergyOverdrawMaintenance 0
scalar OsgEarthNet.uav[92] utilizationCountMissions 4
scalar OsgEarthNet.uav[92] utilizationCountManeuversMission 45
scalar OsgEarthNet.uav[92] utilizationCountManeuversMaintenance 8
scalar OsgEarthNet.uav[92] utilizationCountChargeState 4
scalar OsgEarthNet.uav[92] utilizationCountOverdrawnAfterMission 0
scalar OsgEarthNet.uav[92] utilizationCountIdleState 5
scalar OsgEarthNet.uav[92] utilizationFail 0
scalar OsgEarthNet.uav[92] simulationTime 259200
scalar OsgEarthNet.uav[93] utilizationSecMission 6480.2508304267
scalar OsgEarthNet.uav[93] utilizationSecMaintenance 2669.865872164
scalar OsgEarthNet.uav[93] utilizationSecCharge 32968.085411968
scalar OsgEarthNet.uav[93] utilizationSecIdle 217081.79688544
scalar OsgEarthNet.uav[93] utilizationEnergyMission 30041.935157776
scalar OsgEarthNet.uav[93] utilizationEnergyMaintenance 12091.230613709
scalar OsgEarthNet.uav[93] utilizationEnergyCharge 42196.053222656
scalar OsgEarthNet.uav[93] utilizationEnergyOverdrawMission 0
scalar OsgEarthNet.uav[93] utilizationEnergyOverdrawMaintenance 0
scalar OsgEarthNet.uav[93] utilizationCountMissions 9
scalar OsgEarthNet.uav[93] utilizationCountManeuversMission 108
scalar OsgEarthNet.uav[93] utilizationCountManeuversMaintenance 18
scalar OsgEarthNet.uav[93] utilizationCountChargeState 9
scalar OsgEarthNet.uav[93] utilizationCountOverdrawnAfterMission 0
scalar OsgEarthNet.uav[93] utilizationCountIdleState 8
scalar OsgEarthNet.uav[93] utilizationFail 0
scalar OsgEarthNet.uav[93] simulationTime 259200
scalar OsgEarthNet.uav[94] utilizationSecMission 31184.731121597
scalar OsgEarthNet.uav[94] utilizationSecMaintenance 15099.872667652
scalar OsgEarthNet.uav[94] utilizationSecCharge 169253.39470337
scalar OsgEarthNet.uav[94] utilizationSecIdle 43662.000507383
scalar OsgEarthNet.uav[94] utilizationEnergyMission 143836.38700104
scalar OsgEarthNet.uav[94] utilizationEnergyMaintenance 72268.725284576
scalar OsgEarthNet.uav[94] utilizationEnergyCharge 212976.15661621
scalar OsgEarthNet.uav[94] utilizationEnergyOverdrawMission 0
scalar OsgEarthNet.uav[94] utilizationEnergyOverdrawMaintenance 0
scalar OsgEarthNet.uav[94] utilizationCountMissions 46
scalar OsgEarthNet.uav[94] utilizationCountManeuversMission 514
scalar OsgEarthNet.uav[94] utilizationCountManeuversMaintenance 92
scalar OsgEarthNet.uav[94] utilizationCountChargeState 46
scalar OsgEarthNet.uav[94] utilizationCountOverdrawnAfterMission 0
scalar OsgEarthNet.uav[94] utilizationCountIdleState 46
scalar OsgEarthNet.uav[94] utilizationFail 0
scalar OsgEarthNet.uav[94] simulationTime 259200
scalar OsgEarthNet.uav[95] utilizationSecMission 27873.791260333
scalar OsgEarthNet.uav[95] utilizationSecMaintenance 9502.2552826166
scalar OsgEarthNet.uav[95] utilizationSecCharge 138130
scalar OsgEarthNet.uav[95] utilizationSecIdle 83693.95245705
scalar OsgEarthNet.uav[95] utilizationEnergyMission 128687.13145447
scalar OsgEarthNet.uav[95] utilizationEnergyMaintenance 44366.048095703
scalar OsgEarthNet.uav[95] utilizationEnergyCharge 173376.37695312
scalar OsgEarthNet.uav[95] utilizationEnergyOverdrawMission 0
scalar OsgEarthNet.uav[95] utilizationEnergyOverdrawMaintenance 0
scalar OsgEarthNet.uav[95] utilizationCountMissions 37
scalar OsgEarthNet.uav[95] utilizationCountManeuversMission 446
scalar OsgEarthNet.uav[95] utilizationCountManeuversMaintenance 74
scalar OsgEarthNet.uav[95] utilizationCountChargeState 37
scalar OsgEarthNet.uav[95] utilizationCountOverdrawnAfterMission 0
scalar OsgEarthNet.uav[95] utilizationCountIdleState 38
scalar OsgEarthNet.uav[95] utilizationFail 0
scalar OsgEarthNet.uav[95] simulationTime 259200
scalar OsgEarthNet.uav[96] utilizationSecMission 1290.4296661575
scalar OsgEarthNet.uav[96] utilizationSecMaintenance 721.1247455676
scalar OsgEarthNet.uav[96] utilizationSecCharge 7520
scalar OsgEarthNet.uav[96] utilizationSecIdle 249668.44458827
scalar OsgEarthNet.uav[96] utilizationEnergyMission 5953.2275314331
scalar OsgEarthNet.uav[96] utilizationEnergyMaintenance 3561.5704689026
scalar OsgEarthNet.uav[96] utilizationEnergyCharge 9514.8017578125
scalar OsgEarthNet.uav[96] utilizationEnergyOverdrawMission 0
scalar OsgEarthNet.uav[96] utilizationEnergyOverdrawMaintenance 0
scalar OsgEarthNet.uav[96] utilizationCountMissions 2
scalar OsgEarthNet.uav[96] utilizationCountManeuversMission 21
scalar OsgEarthNet.uav[96] utilizationCountManeuversMaintenance 4
scalar OsgEarthNet.uav[96] utilizationCountChargeState 2
scalar OsgEarthNet.uav[96] utilizationCountOverdrawnAfterMission 0
scalar OsgEarthNet.uav[96] utilizationCountIdleState 3
scalar OsgEarthNet.uav[96] utilizationFail 0
scalar OsgEarthNet.uav[96] simulationTime 259200
scalar OsgEarthNet.uav[97] utilizationSecMission 1636.468880536
scalar OsgEarthNet.uav[97] utilizationSecMaintenance 1281.1136820948
scalar OsgEarthNet.uav[97] utilizationSecCharge 11100
scalar OsgEarthNet.uav[97] utilizationSecIdle 245182.41643737
scalar OsgEarthNet.uav[97] utilizationEnergyMission 7462.16040802
scalar OsgEarthNet.uav[97] utilizationEnergyMaintenance 6235.6562232971
scalar OsgEarthNet.uav[97] utilizationEnergyCharge 13837.137695312
scalar OsgEarthNet.uav[97] utilizationEnergyOverdrawMission 0
scalar OsgEarthNet.uav[97] utilizationEnergyOverdrawMaintenance 0
scalar OsgEarthNet.uav[97] utilizationCountMissions 3
scalar OsgEarthNet.uav[97] utilizationCountManeuversMission 28
scalar OsgEarthNet.uav[97] utilizationCountManeuversMaintenance 6
scalar OsgEarthNet.uav[97] utilizationCountChargeState 3
scalar OsgEarthNet.uav[97] utilizationCountOverdrawnAfterMission 0
scalar OsgEarthNet.uav[97] utilizationCountIdleState 4
scalar OsgEarthNet.uav[97] utilizationFail 0
scalar OsgEarthNet.uav[97] simulationTime 259200
scalar OsgEarthNet.uav[98] utilizationSecMission 3933.5936521617
scalar OsgEarthNet.uav[98] utilizationSecMaintenance 1449.1313533193
scalar OsgEarthNet.uav[98] utilizationSecCharge 18840
scalar OsgEarthNet.uav[98] utilizationSecIdle 234977.27399452
scalar OsgEarthNet.uav[98] utilizationEnergyMission 17856.984321342
scalar OsgEarthNet.uav[98] utilizationEnergyMaintenance 6986.1154251099
scalar OsgEarthNet.uav[98] utilizationEnergyCharge 23700.927734375
scalar OsgEarthNet.uav[98] utilizationEnergyOverdrawMission 0
scalar OsgEarthNet.uav[98] utilizationEnergyOverdrawMaintenance 0
scalar OsgEarthNet.uav[98] utilizationCountMissions 5
scalar OsgEarthNet.uav[98] utilizationCountManeuversMission 61
scalar OsgEarthNet.uav[98] utilizationCountManeuversMaintenance 11
scalar OsgEarthNet.uav[98] utilizationCountChargeState 5
scalar OsgEarthNet.uav[98] utilizationCountOverdrawnAfterMission 0
scalar OsgEarthNet.uav[98] utilizationCountIdleState 6
scalar OsgEarthNet.uav[98] utilizationFail 0
scalar OsgEarthNet.uav[98] simulationTime 259200
scalar OsgEarthNet.uav[99] utilizationSecMission 20507.615324526
scalar OsgEarthNet.uav[99] utilizationSecMaintenance 11178.25590309
scalar OsgEarthNet.uav[99] utilizationSecCharge 114188.57398022
scalar OsgEarthNet.uav[99] utilizationSecIdle 113325.55379216
scalar OsgEarthNet.uav[99] utilizationEnergyMission 95102.821208954
scalar OsgEarthNet.uav[99] utilizationEnergyMaintenance 51865.342216492
scalar OsgEarthNet.uav[99] utilizationEnergyCharge 144584.99804688
scalar OsgEarthNet.uav[99] utilizationEnergyOverdrawMission 0
scalar OsgEarthNet.uav[99] utilizationEnergyOverdrawMaintenance 0
scalar OsgEarthNet.uav[99] utilizationCountMissions 31
scalar OsgEarthNet.uav[99] utilizationCountManeuversMission 338
scalar OsgEarthNet.uav[99] utilizationCountManeuversMaintenance 62
scalar OsgEarthNet.uav[99] utilizationCountChargeState 31
scalar OsgEarthNet.uav[99] utilizationCountOverdrawnAfterMission 0
scalar OsgEarthNet.uav[99] utilizationCountIdleState 31
scalar OsgEarthNet.uav[99] utilizationFail 0
scalar OsgEarthNet.uav[99] simulationTime 259200
scalar OsgEarthNet.cs[0] usedPower 457585.89437569
scalar OsgEarthNet.cs[0] chargedPower 457585.89437569
scalar OsgEarthNet.cs[0] chargedMobileNodes 96
scalar OsgEarthNet.cs[0] reservations 99
scalar OsgEarthNet.cs[1] usedPower 1077095.8150284
scalar OsgEarthNet.cs[1] chargedPower 1077095.8150284
scalar OsgEarthNet.cs[1] chargedMobileNodes 228
scalar OsgEarthNet.cs[1] reservations 231
scalar OsgEarthNet.cs[2] usedPower 2460228.6435048
scalar OsgEarthNet.cs[2] chargedPower 2460228.6435048
scalar OsgEarthNet.cs[2] chargedMobileNodes 520
scalar OsgEarthNet.cs[2] reservations 528
scalar OsgEarthNet.cs[3] usedPower 979220.69427002
scalar OsgEarthNet.cs[3] chargedPower 979220.69427002
scalar OsgEarthNet.cs[3] chargedMobileNodes 207
scalar OsgEarthNet.cs[3] reservations 211
scalar OsgEarthNet.cs[4] usedPower 729431.38189861
scalar OsgEarthNet.cs[4] chargedPower 729431.38189861
scalar OsgEarthNet.cs[4] chargedMobileNodes 156
scalar OsgEarthNet.cs[4] reservations 158
scalar OsgEarthNet.cs[5] usedPower 519581.62770831
scalar OsgEarthNet.cs[5] chargedPower 519581.62770831
scalar OsgEarthNet.cs[5] chargedMobileNodes 109
scalar OsgEarthNet.cs[5] reservations 111
scalar OsgEarthNet.cs[6] usedPower 2501032.726155
scalar OsgEarthNet.cs[6] chargedPower 2501032.726155
scalar OsgEarthNet.cs[6] chargedMobileNodes 533
scalar OsgEarthNet.cs[6] reservations 540

