version 2
run Szenario_Hotel_Gabelbach-16-20180710-12:36:53-20764
attr configname Szenario_Hotel_Gabelbach
attr datetime 20180710-12:36:53
attr experiment Szenario_Hotel_Gabelbach
attr inifile omnetpp.ini
attr iterationvars "$numUAVs=50, $replM=0, $replSearchM=1"
attr iterationvarsf numUAVs=50,replM=0,replSearchM=1-
attr measurement "$numUAVs=50, $replM=0, $replSearchM=1"
attr network OsgEarthNet
attr processid 20764
attr repetition 0
attr replication #0
attr resultdir results
attr runnumber 16
attr seedset 16
itervar numUAVs 50
itervar replM 0
itervar replSearchM 1
param *.osgEarthScene.scene "\"Szenario_Hotel_Gabelbach.earth\""
param *.playgroundLatitude 50.6830269
param *.playgroundLongitude 10.8538055
param *.playgroundWidth 3500m
param *.playgroundHeight 3500m
param *.cs[0].posX 3537m
param *.cs[0].posY 965m
param *.cs[0].posZ 538m
param *.cs[1].posX 312m
param *.cs[1].posY 1262m
param *.cs[1].posZ 539m
param *.cs[2].posX 2185m
param *.cs[2].posY 3026m
param *.cs[2].posZ 777m
param *.cs[3].posX 10m
param *.cs[3].posY 2200m
param *.cs[3].posZ 560m
param *.cs[4].posX 750m
param *.cs[4].posY 200m
param *.cs[4].posZ 540m
param *.cs[5].posX 2450m
param *.cs[5].posY 180m
param *.cs[5].posZ 524m
param *.cs[6].posX 3140m
param *.cs[6].posY 1790m
param *.cs[6].posZ 606m
param *.numCSs 7
param *.numUAVs 50
param *.uav[*].replacementMethod 0
param *.missionControl.replacementSearchMethod 1
param *.*.timeStep 10s
param *.uav[*].commandPreviewCommandCount 20
param *.missionControl.missionFiles "\"missions\\\\Szenario_WB_Hotel_Gabelbach_Mission_Hotel.waypoints,missions\\\\Szenario_WB_Hotel_Gabelbach_Mission_Kickelhahn.waypoints,missions\\\\Szenario_WB_Hotel_Gabelbach_Mission_Ilmenau_Sportplatz.waypoints,missions\\\\Szenario_WB_Hotel_Gabelbach_Mission_Manebach_Mitte.waypoints,missions\\\\Szenario_WB_Hotel_Gabelbach_Mission_Manebach_Sued.waypoints\""
param *.missionControl.missionFiles "\"missions\\\\Szenario_WB_Hotel_Gabelbach_Mission_Hotel.waypoints,missions\\\\Szenario_WB_Hotel_Gabelbach_Mission_Kickelhahn.waypoints,missions\\\\Szenario_WB_Hotel_Gabelbach_Mission_Ilmenau_Sportplatz.waypoints,missions\\\\Szenario_WB_Hotel_Gabelbach_Mission_Manebach_Mitte.waypoints,missions\\\\Szenario_WB_Hotel_Gabelbach_Mission_Manebach_Sued.waypoints,missions\\\\Szenario_WB_Hotel_Gabelbach_Hover_HoheSchlaufe.waypoints,missions\\\\Szenario_WB_Hotel_Gabelbach_Hover_Kickelhahn.waypoints,missions\\\\Szenario_WB_Hotel_Gabelbach_Hover_Gabelbachskopf.waypoints,missions\\\\Szenario_WB_Hotel_Gabelbach_Hover_Dachskopf.waypoints\""
param *.uav[0].startX 3537m
param *.uav[0].startY 965m
param *.uav[0].startZ 539m
param *.uav[1].startX 312m
param *.uav[1].startY 1262m
param *.uav[1].startZ 540m
param *.uav[2].startX 2185m
param *.uav[2].startY 3026m
param *.uav[2].startZ 778m
param *.uav[3].startX 3537m
param *.uav[3].startY 965m
param *.uav[3].startZ 539m
param *.uav[4].startX 312m
param *.uav[4].startY 1262m
param *.uav[4].startZ 540m
param *.uav[5].startX 2185m
param *.uav[5].startY 3026m
param *.uav[5].startZ 778m
param *.uav[6].startX 3537m
param *.uav[6].startY 965m
param *.uav[6].startZ 539m
param *.uav[7].startX 312m
param *.uav[7].startY 1262m
param *.uav[7].startZ 540m
param *.uav[8].startX 2185m
param *.uav[8].startY 3026m
param *.uav[8].startZ 778m
param *.uav[9].startX 3537m
param *.uav[9].startY 965m
param *.uav[9].startZ 539m
param *.uav[10].startX 3537m
param *.uav[10].startY 965m
param *.uav[10].startZ 539m
param *.uav[11].startX 312m
param *.uav[11].startY 1262m
param *.uav[11].startZ 540m
param *.uav[12].startX 2185m
param *.uav[12].startY 3026m
param *.uav[12].startZ 778m
param *.uav[13].startX 3537m
param *.uav[13].startY 965m
param *.uav[13].startZ 539m
param *.uav[14].startX 312m
param *.uav[14].startY 1262m
param *.uav[14].startZ 540m
param *.uav[15].startX 2185m
param *.uav[15].startY 3026m
param *.uav[15].startZ 778m
param *.uav[16].startX 3537m
param *.uav[16].startY 965m
param *.uav[16].startZ 539m
param *.uav[17].startX 312m
param *.uav[17].startY 1262m
param *.uav[17].startZ 540m
param *.uav[18].startX 2185m
param *.uav[18].startY 3026m
param *.uav[18].startZ 778m
param *.uav[19].startX 3537m
param *.uav[19].startY 965m
param *.uav[19].startZ 539m
param *.uav[20].startX 3537m
param *.uav[20].startY 965m
param *.uav[20].startZ 539m
param *.uav[21].startX 312m
param *.uav[21].startY 1262m
param *.uav[21].startZ 540m
param *.uav[22].startX 2185m
param *.uav[22].startY 3026m
param *.uav[22].startZ 778m
param *.uav[23].startX 3537m
param *.uav[23].startY 965m
param *.uav[23].startZ 539m
param *.uav[24].startX 312m
param *.uav[24].startY 1262m
param *.uav[24].startZ 540m
param *.uav[25].startX 2185m
param *.uav[25].startY 3026m
param *.uav[25].startZ 778m
param *.uav[26].startX 3537m
param *.uav[26].startY 965m
param *.uav[26].startZ 539m
param *.uav[27].startX 312m
param *.uav[27].startY 1262m
param *.uav[27].startZ 540m
param *.uav[28].startX 2185m
param *.uav[28].startY 3026m
param *.uav[28].startZ 778m
param *.uav[29].startX 3537m
param *.uav[29].startY 965m
param *.uav[29].startZ 539m
param *.uav[30].startX 3537m
param *.uav[30].startY 965m
param *.uav[30].startZ 539m
param *.uav[31].startX 312m
param *.uav[31].startY 1262m
param *.uav[31].startZ 540m
param *.uav[32].startX 2185m
param *.uav[32].startY 3026m
param *.uav[32].startZ 778m
param *.uav[33].startX 3537m
param *.uav[33].startY 965m
param *.uav[33].startZ 539m
param *.uav[34].startX 312m
param *.uav[34].startY 1262m
param *.uav[34].startZ 540m
param *.uav[35].startX 2185m
param *.uav[35].startY 3026m
param *.uav[35].startZ 778m
param *.uav[36].startX 3537m
param *.uav[36].startY 965m
param *.uav[36].startZ 539m
param *.uav[37].startX 312m
param *.uav[37].startY 1262m
param *.uav[37].startZ 540m
param *.uav[38].startX 2185m
param *.uav[38].startY 3026m
param *.uav[38].startZ 778m
param *.uav[39].startX 3537m
param *.uav[39].startY 965m
param *.uav[39].startZ 539m
param *.uav[40].startX 3537m
param *.uav[40].startY 965m
param *.uav[40].startZ 539m
param *.uav[41].startX 312m
param *.uav[41].startY 1262m
param *.uav[41].startZ 540m
param *.uav[42].startX 2185m
param *.uav[42].startY 3026m
param *.uav[42].startZ 778m
param *.uav[43].startX 3537m
param *.uav[43].startY 965m
param *.uav[43].startZ 539m
param *.uav[44].startX 312m
param *.uav[44].startY 1262m
param *.uav[44].startZ 540m
param *.uav[45].startX 2185m
param *.uav[45].startY 3026m
param *.uav[45].startZ 778m
param *.uav[46].startX 3537m
param *.uav[46].startY 965m
param *.uav[46].startZ 539m
param *.uav[47].startX 312m
param *.uav[47].startY 1262m
param *.uav[47].startZ 540m
param *.uav[48].startX 2185m
param *.uav[48].startY 3026m
param *.uav[48].startZ 778m
param *.uav[49].startX 3537m
param *.uav[49].startY 965m
param *.uav[49].startZ 539m
param *.uav[50].startX 3537m
param *.uav[50].startY 965m
param *.uav[50].startZ 539m
param *.uav[51].startX 312m
param *.uav[51].startY 1262m
param *.uav[51].startZ 540m
param *.uav[52].startX 2185m
param *.uav[52].startY 3026m
param *.uav[52].startZ 778m
param *.uav[53].startX 3537m
param *.uav[53].startY 965m
param *.uav[53].startZ 539m
param *.uav[54].startX 312m
param *.uav[54].startY 1262m
param *.uav[54].startZ 540m
param *.uav[55].startX 2185m
param *.uav[55].startY 3026m
param *.uav[55].startZ 778m
param *.uav[56].startX 3537m
param *.uav[56].startY 965m
param *.uav[56].startZ 539m
param *.uav[57].startX 312m
param *.uav[57].startY 1262m
param *.uav[57].startZ 540m
param *.uav[58].startX 2185m
param *.uav[58].startY 3026m
param *.uav[58].startZ 778m
param *.uav[59].startX 3537m
param *.uav[59].startY 965m
param *.uav[59].startZ 539m
param *.uav[60].startX 3537m
param *.uav[60].startY 965m
param *.uav[60].startZ 539m
param *.uav[61].startX 312m
param *.uav[61].startY 1262m
param *.uav[61].startZ 540m
param *.uav[62].startX 2185m
param *.uav[62].startY 3026m
param *.uav[62].startZ 778m
param *.uav[63].startX 3537m
param *.uav[63].startY 965m
param *.uav[63].startZ 539m
param *.uav[64].startX 312m
param *.uav[64].startY 1262m
param *.uav[64].startZ 540m
param *.uav[65].startX 2185m
param *.uav[65].startY 3026m
param *.uav[65].startZ 778m
param *.uav[66].startX 3537m
param *.uav[66].startY 965m
param *.uav[66].startZ 539m
param *.uav[67].startX 312m
param *.uav[67].startY 1262m
param *.uav[67].startZ 540m
param *.uav[68].startX 2185m
param *.uav[68].startY 3026m
param *.uav[68].startZ 778m
param *.uav[69].startX 3537m
param *.uav[69].startY 965m
param *.uav[69].startZ 539m
param *.uav[70].startX 3537m
param *.uav[70].startY 965m
param *.uav[70].startZ 539m
param *.uav[71].startX 312m
param *.uav[71].startY 1262m
param *.uav[71].startZ 540m
param *.uav[72].startX 2185m
param *.uav[72].startY 3026m
param *.uav[72].startZ 778m
param *.uav[73].startX 3537m
param *.uav[73].startY 965m
param *.uav[73].startZ 539m
param *.uav[74].startX 312m
param *.uav[74].startY 1262m
param *.uav[74].startZ 540m
param *.uav[75].startX 2185m
param *.uav[75].startY 3026m
param *.uav[75].startZ 778m
param *.uav[76].startX 3537m
param *.uav[76].startY 965m
param *.uav[76].startZ 539m
param *.uav[77].startX 312m
param *.uav[77].startY 1262m
param *.uav[77].startZ 540m
param *.uav[78].startX 2185m
param *.uav[78].startY 3026m
param *.uav[78].startZ 778m
param *.uav[79].startX 3537m
param *.uav[79].startY 965m
param *.uav[79].startZ 539m
param *.uav[80].startX 3537m
param *.uav[80].startY 965m
param *.uav[80].startZ 539m
param *.uav[81].startX 312m
param *.uav[81].startY 1262m
param *.uav[81].startZ 540m
param *.uav[82].startX 2185m
param *.uav[82].startY 3026m
param *.uav[82].startZ 778m
param *.uav[83].startX 3537m
param *.uav[83].startY 965m
param *.uav[83].startZ 539m
param *.uav[84].startX 312m
param *.uav[84].startY 1262m
param *.uav[84].startZ 540m
param *.uav[85].startX 2185m
param *.uav[85].startY 3026m
param *.uav[85].startZ 778m
param *.uav[86].startX 3537m
param *.uav[86].startY 965m
param *.uav[86].startZ 539m
param *.uav[87].startX 312m
param *.uav[87].startY 1262m
param *.uav[87].startZ 540m
param *.uav[88].startX 2185m
param *.uav[88].startY 3026m
param *.uav[88].startZ 778m
param *.uav[89].startX 3537m
param *.uav[89].startY 965m
param *.uav[89].startZ 539m
param *.uav[90].startX 3537m
param *.uav[90].startY 965m
param *.uav[90].startZ 539m
param *.uav[91].startX 312m
param *.uav[91].startY 1262m
param *.uav[91].startZ 540m
param *.uav[92].startX 2185m
param *.uav[92].startY 3026m
param *.uav[92].startZ 778m
param *.uav[93].startX 3537m
param *.uav[93].startY 965m
param *.uav[93].startZ 539m
param *.uav[94].startX 312m
param *.uav[94].startY 1262m
param *.uav[94].startZ 540m
param *.uav[95].startX 2185m
param *.uav[95].startY 3026m
param *.uav[95].startZ 778m
param *.uav[96].startX 3537m
param *.uav[96].startY 965m
param *.uav[96].startZ 539m
param *.uav[97].startX 312m
param *.uav[97].startY 1262m
param *.uav[97].startZ 540m
param *.uav[98].startX 2185m
param *.uav[98].startY 3026m
param *.uav[98].startZ 778m
param *.uav[99].startX 3537m
param *.uav[99].startY 965m
param *.uav[99].startZ 539m
param *.osgEarthScene.scene "\"boston.earth\""
param *.playgroundLatitude 42.3558
param *.playgroundLongitude -71.0677
param *.playgroundWidth 400m
param *.playgroundHeight 200m
param *.channelController.connectionColor "\"#0000FF40\""
param *.channelController.showConnections false
param *.uav[*].modelURL "\"quadrocopter.small.obj.15.scale.0,0,90.rot\""
param *.uav[*].labelColor "\"#FF7C00CC\""
param *.uav[*].label2Color "\"#FF7C00EE\""
param *.uav[*].batteryCapacity 5200mAh
param *.uav[*].batteryRemaining uav[index].batteryCapacity
param *.uav[*].predictionQuantile 0.95
param *.uav[*].replacementMethod 2
param *.uav[*].weightedSumWeight 0.5
param *.cs[*].modelURL "\"chargingstation_v1.osgt.2.scale.0,0,0.rot.0,0,-15e-1.trans\""
param *.cs[*].spotsWaiting 999
param *.cs[*].spotsCharging 999
param *.cs[*].chargeEffectivenessPercentage 100
param *.cs[*].nonLinearPhaseStartPercentage 85
param *.cs[*].chargeCurrent 6.0A
param *.cs[*].prioritizeFastCharge true
param *.missionControl.replacementSearchMethod 0
param *.*.timeStep 9s

scalar OsgEarthNet.uav[0] utilizationSecMission 35379.584823664
scalar OsgEarthNet.uav[0] utilizationSecMaintenance 11184.816298064
scalar OsgEarthNet.uav[0] utilizationSecCharge 163630
scalar OsgEarthNet.uav[0] utilizationSecIdle 49005.597878272
scalar OsgEarthNet.uav[0] utilizationEnergyMission 162247.9440918
scalar OsgEarthNet.uav[0] utilizationEnergyMaintenance 53219.416675568
scalar OsgEarthNet.uav[0] utilizationEnergyCharge 215467.37939453
scalar OsgEarthNet.uav[0] utilizationEnergyOverdrawMission 0
scalar OsgEarthNet.uav[0] utilizationEnergyOverdrawMaintenance 0
scalar OsgEarthNet.uav[0] utilizationCountMissions 47
scalar OsgEarthNet.uav[0] utilizationCountManeuversMission 541
scalar OsgEarthNet.uav[0] utilizationCountManeuversMaintenance 94
scalar OsgEarthNet.uav[0] utilizationCountChargeState 47
scalar OsgEarthNet.uav[0] utilizationCountOverdrawnAfterMission 0
scalar OsgEarthNet.uav[0] utilizationCountIdleState 18
scalar OsgEarthNet.uav[0] utilizationFail 0
scalar OsgEarthNet.uav[0] simulationTime 259200
scalar OsgEarthNet.uav[1] utilizationSecMission 35964.968901733
scalar OsgEarthNet.uav[1] utilizationSecMaintenance 16445.242936084
scalar OsgEarthNet.uav[1] utilizationSecCharge 190415.43550314
scalar OsgEarthNet.uav[1] utilizationSecIdle 16374.35165904
scalar OsgEarthNet.uav[1] utilizationEnergyMission 166489.05142212
scalar OsgEarthNet.uav[1] utilizationEnergyMaintenance 77928.077407837
scalar OsgEarthNet.uav[1] utilizationEnergyCharge 241349.27294922
scalar OsgEarthNet.uav[1] utilizationEnergyOverdrawMission 0
scalar OsgEarthNet.uav[1] utilizationEnergyOverdrawMaintenance 0
scalar OsgEarthNet.uav[1] utilizationCountMissions 52
scalar OsgEarthNet.uav[1] utilizationCountManeuversMission 674
scalar OsgEarthNet.uav[1] utilizationCountManeuversMaintenance 104
scalar OsgEarthNet.uav[1] utilizationCountChargeState 52
scalar OsgEarthNet.uav[1] utilizationCountOverdrawnAfterMission 0
scalar OsgEarthNet.uav[1] utilizationCountIdleState 31
scalar OsgEarthNet.uav[1] utilizationFail 0
scalar OsgEarthNet.uav[1] simulationTime 259200
scalar OsgEarthNet.uav[2] utilizationSecMission 11839.24634672
scalar OsgEarthNet.uav[2] utilizationSecMaintenance 4499.7050296882
scalar OsgEarthNet.uav[2] utilizationSecCharge 60210
scalar OsgEarthNet.uav[2] utilizationSecIdle 182651.04762359
scalar OsgEarthNet.uav[2] utilizationEnergyMission 55523.769210815
scalar OsgEarthNet.uav[2] utilizationEnergyMaintenance 20787.24822998
scalar OsgEarthNet.uav[2] utilizationEnergyCharge 75916.901855469
scalar OsgEarthNet.uav[2] utilizationEnergyOverdrawMission 0
scalar OsgEarthNet.uav[2] utilizationEnergyOverdrawMaintenance 0
scalar OsgEarthNet.uav[2] utilizationCountMissions 16
scalar OsgEarthNet.uav[2] utilizationCountManeuversMission 197
scalar OsgEarthNet.uav[2] utilizationCountManeuversMaintenance 32
scalar OsgEarthNet.uav[2] utilizationCountChargeState 16
scalar OsgEarthNet.uav[2] utilizationCountOverdrawnAfterMission 0
scalar OsgEarthNet.uav[2] utilizationCountIdleState 15
scalar OsgEarthNet.uav[2] utilizationFail 0
scalar OsgEarthNet.uav[2] simulationTime 259200
scalar OsgEarthNet.uav[3] utilizationSecMission 35369.164398562
scalar OsgEarthNet.uav[3] utilizationSecMaintenance 11307.383293018
scalar OsgEarthNet.uav[3] utilizationSecCharge 164580
scalar OsgEarthNet.uav[3] utilizationSecIdle 47943.45130842
scalar OsgEarthNet.uav[3] utilizationEnergyMission 160928.92946625
scalar OsgEarthNet.uav[3] utilizationEnergyMaintenance 54062.439880371
scalar OsgEarthNet.uav[3] utilizationEnergyCharge 214826.48632812
scalar OsgEarthNet.uav[3] utilizationEnergyOverdrawMission 0
scalar OsgEarthNet.uav[3] utilizationEnergyOverdrawMaintenance 0
scalar OsgEarthNet.uav[3] utilizationCountMissions 47
scalar OsgEarthNet.uav[3] utilizationCountManeuversMission 540
scalar OsgEarthNet.uav[3] utilizationCountManeuversMaintenance 94
scalar OsgEarthNet.uav[3] utilizationCountChargeState 47
scalar OsgEarthNet.uav[3] utilizationCountOverdrawnAfterMission 0
scalar OsgEarthNet.uav[3] utilizationCountIdleState 19
scalar OsgEarthNet.uav[3] utilizationFail 0
scalar OsgEarthNet.uav[3] simulationTime 259200
scalar OsgEarthNet.uav[4] utilizationSecMission 15523.21744955
scalar OsgEarthNet.uav[4] utilizationSecMaintenance 7425.2015815017
scalar OsgEarthNet.uav[4] utilizationSecCharge 81432.881599335
scalar OsgEarthNet.uav[4] utilizationSecIdle 154818.69836961
scalar OsgEarthNet.uav[4] utilizationEnergyMission 71198.365974426
scalar OsgEarthNet.uav[4] utilizationEnergyMaintenance 35584.103687286
scalar OsgEarthNet.uav[4] utilizationEnergyCharge 106053.10083008
scalar OsgEarthNet.uav[4] utilizationEnergyOverdrawMission 0
scalar OsgEarthNet.uav[4] utilizationEnergyOverdrawMaintenance 0
scalar OsgEarthNet.uav[4] utilizationCountMissions 23
scalar OsgEarthNet.uav[4] utilizationCountManeuversMission 246
scalar OsgEarthNet.uav[4] utilizationCountManeuversMaintenance 46
scalar OsgEarthNet.uav[4] utilizationCountChargeState 23
scalar OsgEarthNet.uav[4] utilizationCountOverdrawnAfterMission 0
scalar OsgEarthNet.uav[4] utilizationCountIdleState 15
scalar OsgEarthNet.uav[4] utilizationFail 0
scalar OsgEarthNet.uav[4] simulationTime 259200
scalar OsgEarthNet.uav[5] utilizationSecMission 41038.489256368
scalar OsgEarthNet.uav[5] utilizationSecMaintenance 7591.8986679412
scalar OsgEarthNet.uav[5] utilizationSecCharge 161412.90571315
scalar OsgEarthNet.uav[5] utilizationSecIdle 49156.705362542
scalar OsgEarthNet.uav[5] utilizationEnergyMission 188967.80540466
scalar OsgEarthNet.uav[5] utilizationEnergyMaintenance 34114.818069458
scalar OsgEarthNet.uav[5] utilizationEnergyCharge 221265.42285156
scalar OsgEarthNet.uav[5] utilizationEnergyOverdrawMission 0
scalar OsgEarthNet.uav[5] utilizationEnergyOverdrawMaintenance 0
scalar OsgEarthNet.uav[5] utilizationCountMissions 47
scalar OsgEarthNet.uav[5] utilizationCountManeuversMission 647
scalar OsgEarthNet.uav[5] utilizationCountManeuversMaintenance 94
scalar OsgEarthNet.uav[5] utilizationCountChargeState 47
scalar OsgEarthNet.uav[5] utilizationCountOverdrawnAfterMission 0
scalar OsgEarthNet.uav[5] utilizationCountIdleState 8
scalar OsgEarthNet.uav[5] utilizationFail 0
scalar OsgEarthNet.uav[5] simulationTime 259200
scalar OsgEarthNet.uav[6] utilizationSecMission 5607.5932141028
scalar OsgEarthNet.uav[6] utilizationSecMaintenance 2185.7130143974
scalar OsgEarthNet.uav[6] utilizationSecCharge 29510
scalar OsgEarthNet.uav[6] utilizationSecIdle 221896.6927715
scalar OsgEarthNet.uav[6] utilizationEnergyMission 26312.817726135
scalar OsgEarthNet.uav[6] utilizationEnergyMaintenance 10372.682079315
scalar OsgEarthNet.uav[6] utilizationEnergyCharge 36685.511230469
scalar OsgEarthNet.uav[6] utilizationEnergyOverdrawMission 0
scalar OsgEarthNet.uav[6] utilizationEnergyOverdrawMaintenance 0
scalar OsgEarthNet.uav[6] utilizationCountMissions 8
scalar OsgEarthNet.uav[6] utilizationCountManeuversMission 87
scalar OsgEarthNet.uav[6] utilizationCountManeuversMaintenance 16
scalar OsgEarthNet.uav[6] utilizationCountChargeState 8
scalar OsgEarthNet.uav[6] utilizationCountOverdrawnAfterMission 0
scalar OsgEarthNet.uav[6] utilizationCountIdleState 9
scalar OsgEarthNet.uav[6] utilizationFail 0
scalar OsgEarthNet.uav[6] simulationTime 259200
scalar OsgEarthNet.uav[7] utilizationSecMission 36881.974195355
scalar OsgEarthNet.uav[7] utilizationSecMaintenance 16611.831896719
scalar OsgEarthNet.uav[7] utilizationSecCharge 193071.23994172
scalar OsgEarthNet.uav[7] utilizationSecIdle 12634.952966205
scalar OsgEarthNet.uav[7] utilizationEnergyMission 170610.67012787
scalar OsgEarthNet.uav[7] utilizationEnergyMaintenance 77782.825172424
scalar OsgEarthNet.uav[7] utilizationEnergyCharge 244309.66448975
scalar OsgEarthNet.uav[7] utilizationEnergyOverdrawMission 0
scalar OsgEarthNet.uav[7] utilizationEnergyOverdrawMaintenance 0
scalar OsgEarthNet.uav[7] utilizationCountMissions 53
scalar OsgEarthNet.uav[7] utilizationCountManeuversMission 689
scalar OsgEarthNet.uav[7] utilizationCountManeuversMaintenance 106
scalar OsgEarthNet.uav[7] utilizationCountChargeState 53
scalar OsgEarthNet.uav[7] utilizationCountOverdrawnAfterMission 0
scalar OsgEarthNet.uav[7] utilizationCountIdleState 30
scalar OsgEarthNet.uav[7] utilizationFail 0
scalar OsgEarthNet.uav[7] simulationTime 259200
scalar OsgEarthNet.uav[8] utilizationSecMission 18696.856362219
scalar OsgEarthNet.uav[8] utilizationSecMaintenance 5855.6923737504
scalar OsgEarthNet.uav[8] utilizationSecCharge 86700
scalar OsgEarthNet.uav[8] utilizationSecIdle 147947.45026403
scalar OsgEarthNet.uav[8] utilizationEnergyMission 86911.417051625
scalar OsgEarthNet.uav[8] utilizationEnergyMaintenance 27064.107738495
scalar OsgEarthNet.uav[8] utilizationEnergyCharge 112138.12792969
scalar OsgEarthNet.uav[8] utilizationEnergyOverdrawMission 0
scalar OsgEarthNet.uav[8] utilizationEnergyOverdrawMaintenance 0
scalar OsgEarthNet.uav[8] utilizationCountMissions 24
scalar OsgEarthNet.uav[8] utilizationCountManeuversMission 294
scalar OsgEarthNet.uav[8] utilizationCountManeuversMaintenance 49
scalar OsgEarthNet.uav[8] utilizationCountChargeState 24
scalar OsgEarthNet.uav[8] utilizationCountOverdrawnAfterMission 0
scalar OsgEarthNet.uav[8] utilizationCountIdleState 16
scalar OsgEarthNet.uav[8] utilizationFail 0
scalar OsgEarthNet.uav[8] simulationTime 259200
scalar OsgEarthNet.uav[9] utilizationSecMission 6747.7767676081
scalar OsgEarthNet.uav[9] utilizationSecMaintenance 2937.7318612888
scalar OsgEarthNet.uav[9] utilizationSecCharge 36770
scalar OsgEarthNet.uav[9] utilizationSecIdle 212744.4903711
scalar OsgEarthNet.uav[9] utilizationEnergyMission 31929.452568054
scalar OsgEarthNet.uav[9] utilizationEnergyMaintenance 13788.088657379
scalar OsgEarthNet.uav[9] utilizationEnergyCharge 45717.547851562
scalar OsgEarthNet.uav[9] utilizationEnergyOverdrawMission 0
scalar OsgEarthNet.uav[9] utilizationEnergyOverdrawMaintenance 0
scalar OsgEarthNet.uav[9] utilizationCountMissions 10
scalar OsgEarthNet.uav[9] utilizationCountManeuversMission 111
scalar OsgEarthNet.uav[9] utilizationCountManeuversMaintenance 20
scalar OsgEarthNet.uav[9] utilizationCountChargeState 10
scalar OsgEarthNet.uav[9] utilizationCountOverdrawnAfterMission 0
scalar OsgEarthNet.uav[9] utilizationCountIdleState 10
scalar OsgEarthNet.uav[9] utilizationFail 0
scalar OsgEarthNet.uav[9] simulationTime 259200
scalar OsgEarthNet.uav[10] utilizationSecMission 27258.600333622
scalar OsgEarthNet.uav[10] utilizationSecMaintenance 12415.163592725
scalar OsgEarthNet.uav[10] utilizationSecCharge 140445.06434041
scalar OsgEarthNet.uav[10] utilizationSecIdle 79081.170733247
scalar OsgEarthNet.uav[10] utilizationEnergyMission 126852.49583435
scalar OsgEarthNet.uav[10] utilizationEnergyMaintenance 58632.391551971
scalar OsgEarthNet.uav[10] utilizationEnergyCharge 183765.70263672
scalar OsgEarthNet.uav[10] utilizationEnergyOverdrawMission 0
scalar OsgEarthNet.uav[10] utilizationEnergyOverdrawMaintenance 0
scalar OsgEarthNet.uav[10] utilizationCountMissions 40
scalar OsgEarthNet.uav[10] utilizationCountManeuversMission 444
scalar OsgEarthNet.uav[10] utilizationCountManeuversMaintenance 80
scalar OsgEarthNet.uav[10] utilizationCountChargeState 40
scalar OsgEarthNet.uav[10] utilizationCountOverdrawnAfterMission 0
scalar OsgEarthNet.uav[10] utilizationCountIdleState 23
scalar OsgEarthNet.uav[10] utilizationFail 0
scalar OsgEarthNet.uav[10] simulationTime 259200
scalar OsgEarthNet.uav[11] utilizationSecMission 36427.02462682
scalar OsgEarthNet.uav[11] utilizationSecMaintenance 16414.867715989
scalar OsgEarthNet.uav[11] utilizationSecCharge 193725.76310328
scalar OsgEarthNet.uav[11] utilizationSecIdle 12632.34355391
scalar OsgEarthNet.uav[11] utilizationEnergyMission 170151.66408157
scalar OsgEarthNet.uav[11] utilizationEnergyMaintenance 77132.777572632
scalar OsgEarthNet.uav[11] utilizationEnergyCharge 247154.17773438
scalar OsgEarthNet.uav[11] utilizationEnergyOverdrawMission 0
scalar OsgEarthNet.uav[11] utilizationEnergyOverdrawMaintenance 0
scalar OsgEarthNet.uav[11] utilizationCountMissions 52
scalar OsgEarthNet.uav[11] utilizationCountManeuversMission 681
scalar OsgEarthNet.uav[11] utilizationCountManeuversMaintenance 104
scalar OsgEarthNet.uav[11] utilizationCountChargeState 52
scalar OsgEarthNet.uav[11] utilizationCountOverdrawnAfterMission 0
scalar OsgEarthNet.uav[11] utilizationCountIdleState 23
scalar OsgEarthNet.uav[11] utilizationFail 0
scalar OsgEarthNet.uav[11] simulationTime 259200
scalar OsgEarthNet.uav[12] utilizationSecMission 28203.150738157
scalar OsgEarthNet.uav[12] utilizationSecMaintenance 9404.5784945177
scalar OsgEarthNet.uav[12] utilizationSecCharge 133675.616458
scalar OsgEarthNet.uav[12] utilizationSecIdle 87916.653309323
scalar OsgEarthNet.uav[12] utilizationEnergyMission 131388.91255951
scalar OsgEarthNet.uav[12] utilizationEnergyMaintenance 44660.808815002
scalar OsgEarthNet.uav[12] utilizationEnergyCharge 174313.98974609
scalar OsgEarthNet.uav[12] utilizationEnergyOverdrawMission 0
scalar OsgEarthNet.uav[12] utilizationEnergyOverdrawMaintenance 0
scalar OsgEarthNet.uav[12] utilizationCountMissions 38
scalar OsgEarthNet.uav[12] utilizationCountManeuversMission 427
scalar OsgEarthNet.uav[12] utilizationCountManeuversMaintenance 76
scalar OsgEarthNet.uav[12] utilizationCountChargeState 38
scalar OsgEarthNet.uav[12] utilizationCountOverdrawnAfterMission 0
scalar OsgEarthNet.uav[12] utilizationCountIdleState 18
scalar OsgEarthNet.uav[12] utilizationFail 0
scalar OsgEarthNet.uav[12] simulationTime 259200
scalar OsgEarthNet.uav[13] utilizationSecMission 9837.3655435834
scalar OsgEarthNet.uav[13] utilizationSecMaintenance 5202.4346903648
scalar OsgEarthNet.uav[13] utilizationSecCharge 55170
scalar OsgEarthNet.uav[13] utilizationSecIdle 188990.19876605
scalar OsgEarthNet.uav[13] utilizationEnergyMission 45379.378223419
scalar OsgEarthNet.uav[13] utilizationEnergyMaintenance 24920.750843048
scalar OsgEarthNet.uav[13] utilizationEnergyCharge 70300.137207031
scalar OsgEarthNet.uav[13] utilizationEnergyOverdrawMission 0
scalar OsgEarthNet.uav[13] utilizationEnergyOverdrawMaintenance 0
scalar OsgEarthNet.uav[13] utilizationCountMissions 15
scalar OsgEarthNet.uav[13] utilizationCountManeuversMission 161
scalar OsgEarthNet.uav[13] utilizationCountManeuversMaintenance 30
scalar OsgEarthNet.uav[13] utilizationCountChargeState 15
scalar OsgEarthNet.uav[13] utilizationCountOverdrawnAfterMission 0
scalar OsgEarthNet.uav[13] utilizationCountIdleState 13
scalar OsgEarthNet.uav[13] utilizationFail 0
scalar OsgEarthNet.uav[13] simulationTime 259200
scalar OsgEarthNet.uav[14] utilizationSecMission 36666.779808296
scalar OsgEarthNet.uav[14] utilizationSecMaintenance 16734.679061521
scalar OsgEarthNet.uav[14] utilizationSecCharge 193960
scalar OsgEarthNet.uav[14] utilizationSecIdle 11838.540130183
scalar OsgEarthNet.uav[14] utilizationEnergyMission 171309.14138794
scalar OsgEarthNet.uav[14] utilizationEnergyMaintenance 78719.24120046
scalar OsgEarthNet.uav[14] utilizationEnergyCharge 246340.88720703
scalar OsgEarthNet.uav[14] utilizationEnergyOverdrawMission 0
scalar OsgEarthNet.uav[14] utilizationEnergyOverdrawMaintenance 0
scalar OsgEarthNet.uav[14] utilizationCountMissions 53
scalar OsgEarthNet.uav[14] utilizationCountManeuversMission 686
scalar OsgEarthNet.uav[14] utilizationCountManeuversMaintenance 106
scalar OsgEarthNet.uav[14] utilizationCountChargeState 52
scalar OsgEarthNet.uav[14] utilizationCountOverdrawnAfterMission 0
scalar OsgEarthNet.uav[14] utilizationCountIdleState 23
scalar OsgEarthNet.uav[14] utilizationFail 0
scalar OsgEarthNet.uav[14] simulationTime 259200
scalar OsgEarthNet.uav[15] utilizationSecMission 43495.171107579
scalar OsgEarthNet.uav[15] utilizationSecMaintenance 7770.9380292575
scalar OsgEarthNet.uav[15] utilizationSecCharge 170101.88986316
scalar OsgEarthNet.uav[15] utilizationSecIdle 37832
scalar OsgEarthNet.uav[15] utilizationEnergyMission 201125.00651621
scalar OsgEarthNet.uav[15] utilizationEnergyMaintenance 36597.931865692
scalar OsgEarthNet.uav[15] utilizationEnergyCharge 235357.75805664
scalar OsgEarthNet.uav[15] utilizationEnergyOverdrawMission 0
scalar OsgEarthNet.uav[15] utilizationEnergyOverdrawMaintenance 0
scalar OsgEarthNet.uav[15] utilizationCountMissions 49
scalar OsgEarthNet.uav[15] utilizationCountManeuversMission 688
scalar OsgEarthNet.uav[15] utilizationCountManeuversMaintenance 97
scalar OsgEarthNet.uav[15] utilizationCountChargeState 49
scalar OsgEarthNet.uav[15] utilizationCountOverdrawnAfterMission 0
scalar OsgEarthNet.uav[15] utilizationCountIdleState 10
scalar OsgEarthNet.uav[15] utilizationFail 0
scalar OsgEarthNet.uav[15] simulationTime 259200
scalar OsgEarthNet.uav[16] utilizationSecMission 21338.327928437
scalar OsgEarthNet.uav[16] utilizationSecMaintenance 9104.8586558838
scalar OsgEarthNet.uav[16] utilizationSecCharge 112240
scalar OsgEarthNet.uav[16] utilizationSecIdle 116516.81241568
scalar OsgEarthNet.uav[16] utilizationEnergyMission 100081.06459045
scalar OsgEarthNet.uav[16] utilizationEnergyMaintenance 43320.59810257
scalar OsgEarthNet.uav[16] utilizationEnergyCharge 143401.68408203
scalar OsgEarthNet.uav[16] utilizationEnergyOverdrawMission 0
scalar OsgEarthNet.uav[16] utilizationEnergyOverdrawMaintenance 0
scalar OsgEarthNet.uav[16] utilizationCountMissions 31
scalar OsgEarthNet.uav[16] utilizationCountManeuversMission 340
scalar OsgEarthNet.uav[16] utilizationCountManeuversMaintenance 62
scalar OsgEarthNet.uav[16] utilizationCountChargeState 31
scalar OsgEarthNet.uav[16] utilizationCountOverdrawnAfterMission 0
scalar OsgEarthNet.uav[16] utilizationCountIdleState 20
scalar OsgEarthNet.uav[16] utilizationFail 0
scalar OsgEarthNet.uav[16] simulationTime 259200
scalar OsgEarthNet.uav[17] utilizationSecMission 12771.194674462
scalar OsgEarthNet.uav[17] utilizationSecMaintenance 7244.4830792321
scalar OsgEarthNet.uav[17] utilizationSecCharge 74210
scalar OsgEarthNet.uav[17] utilizationSecIdle 164974.32124631
scalar OsgEarthNet.uav[17] utilizationEnergyMission 59096.690864563
scalar OsgEarthNet.uav[17] utilizationEnergyMaintenance 34568.432491302
scalar OsgEarthNet.uav[17] utilizationEnergyCharge 93665.12109375
scalar OsgEarthNet.uav[17] utilizationEnergyOverdrawMission 0
scalar OsgEarthNet.uav[17] utilizationEnergyOverdrawMaintenance 0
scalar OsgEarthNet.uav[17] utilizationCountMissions 20
scalar OsgEarthNet.uav[17] utilizationCountManeuversMission 212
scalar OsgEarthNet.uav[17] utilizationCountManeuversMaintenance 40
scalar OsgEarthNet.uav[17] utilizationCountChargeState 20
scalar OsgEarthNet.uav[17] utilizationCountOverdrawnAfterMission 0
scalar OsgEarthNet.uav[17] utilizationCountIdleState 18
scalar OsgEarthNet.uav[17] utilizationFail 0
scalar OsgEarthNet.uav[17] simulationTime 259200
scalar OsgEarthNet.uav[18] utilizationSecMission 28556.992462964
scalar OsgEarthNet.uav[18] utilizationSecMaintenance 14235.25276063
scalar OsgEarthNet.uav[18] utilizationSecCharge 158370
scalar OsgEarthNet.uav[18] utilizationSecIdle 58037.753776406
scalar OsgEarthNet.uav[18] utilizationEnergyMission 133653.95411157
scalar OsgEarthNet.uav[18] utilizationEnergyMaintenance 67309.581241608
scalar OsgEarthNet.uav[18] utilizationEnergyCharge 200435.63476562
scalar OsgEarthNet.uav[18] utilizationEnergyOverdrawMission 0
scalar OsgEarthNet.uav[18] utilizationEnergyOverdrawMaintenance 0
scalar OsgEarthNet.uav[18] utilizationCountMissions 43
scalar OsgEarthNet.uav[18] utilizationCountManeuversMission 526
scalar OsgEarthNet.uav[18] utilizationCountManeuversMaintenance 87
scalar OsgEarthNet.uav[18] utilizationCountChargeState 43
scalar OsgEarthNet.uav[18] utilizationCountOverdrawnAfterMission 0
scalar OsgEarthNet.uav[18] utilizationCountIdleState 31
scalar OsgEarthNet.uav[18] utilizationFail 0
scalar OsgEarthNet.uav[18] simulationTime 259200
scalar OsgEarthNet.uav[19] utilizationSecMission 12950.762142831
scalar OsgEarthNet.uav[19] utilizationSecMaintenance 6071.1058247548
scalar OsgEarthNet.uav[19] utilizationSecCharge 71160
scalar OsgEarthNet.uav[19] utilizationSecIdle 169018.13103241
scalar OsgEarthNet.uav[19] utilizationEnergyMission 60390.745483398
scalar OsgEarthNet.uav[19] utilizationEnergyMaintenance 28827.922000885
scalar OsgEarthNet.uav[19] utilizationEnergyCharge 89227.864746094
scalar OsgEarthNet.uav[19] utilizationEnergyOverdrawMission 0
scalar OsgEarthNet.uav[19] utilizationEnergyOverdrawMaintenance 0
scalar OsgEarthNet.uav[19] utilizationCountMissions 19
scalar OsgEarthNet.uav[19] utilizationCountManeuversMission 206
scalar OsgEarthNet.uav[19] utilizationCountManeuversMaintenance 37
scalar OsgEarthNet.uav[19] utilizationCountChargeState 19
scalar OsgEarthNet.uav[19] utilizationCountOverdrawnAfterMission 0
scalar OsgEarthNet.uav[19] utilizationCountIdleState 19
scalar OsgEarthNet.uav[19] utilizationFail 0
scalar OsgEarthNet.uav[19] simulationTime 259200
scalar OsgEarthNet.uav[20] utilizationSecMission 16852.228304673
scalar OsgEarthNet.uav[20] utilizationSecMaintenance 8553.9806660031
scalar OsgEarthNet.uav[20] utilizationSecCharge 92835.706804254
scalar OsgEarthNet.uav[20] utilizationSecIdle 140958.08322507
scalar OsgEarthNet.uav[20] utilizationEnergyMission 76994.333251953
scalar OsgEarthNet.uav[20] utilizationEnergyMaintenance 41485.277294159
scalar OsgEarthNet.uav[20] utilizationEnergyCharge 118331.48632812
scalar OsgEarthNet.uav[20] utilizationEnergyOverdrawMission 0
scalar OsgEarthNet.uav[20] utilizationEnergyOverdrawMaintenance 0
scalar OsgEarthNet.uav[20] utilizationCountMissions 25
scalar OsgEarthNet.uav[20] utilizationCountManeuversMission 277
scalar OsgEarthNet.uav[20] utilizationCountManeuversMaintenance 50
scalar OsgEarthNet.uav[20] utilizationCountChargeState 25
scalar OsgEarthNet.uav[20] utilizationCountOverdrawnAfterMission 0
scalar OsgEarthNet.uav[20] utilizationCountIdleState 23
scalar OsgEarthNet.uav[20] utilizationFail 0
scalar OsgEarthNet.uav[20] simulationTime 259200
scalar OsgEarthNet.uav[21] utilizationSecMission 46421.524913924
scalar OsgEarthNet.uav[21] utilizationSecMaintenance 11493.946684541
scalar OsgEarthNet.uav[21] utilizationSecCharge 193278.0525902
scalar OsgEarthNet.uav[21] utilizationSecIdle 8006.4748113316
scalar OsgEarthNet.uav[21] utilizationEnergyMission 211640.94763947
scalar OsgEarthNet.uav[21] utilizationEnergyMaintenance 54626.104850769
scalar OsgEarthNet.uav[21] utilizationEnergyCharge 262132.00299072
scalar OsgEarthNet.uav[21] utilizationEnergyOverdrawMission 0
scalar OsgEarthNet.uav[21] utilizationEnergyOverdrawMaintenance 0
scalar OsgEarthNet.uav[21] utilizationCountMissions 56
scalar OsgEarthNet.uav[21] utilizationCountManeuversMission 771
scalar OsgEarthNet.uav[21] utilizationCountManeuversMaintenance 112
scalar OsgEarthNet.uav[21] utilizationCountChargeState 56
scalar OsgEarthNet.uav[21] utilizationCountOverdrawnAfterMission 0
scalar OsgEarthNet.uav[21] utilizationCountIdleState 11
scalar OsgEarthNet.uav[21] utilizationFail 0
scalar OsgEarthNet.uav[21] simulationTime 259200
scalar OsgEarthNet.uav[22] utilizationSecMission 11083.701614361
scalar OsgEarthNet.uav[22] utilizationSecMaintenance 5742.9336860732
scalar OsgEarthNet.uav[22] utilizationSecCharge 62477.121863945
scalar OsgEarthNet.uav[22] utilizationSecIdle 179896.24183562
scalar OsgEarthNet.uav[22] utilizationEnergyMission 51538.779510498
scalar OsgEarthNet.uav[22] utilizationEnergyMaintenance 27502.900096893
scalar OsgEarthNet.uav[22] utilizationEnergyCharge 78872.866210938
scalar OsgEarthNet.uav[22] utilizationEnergyOverdrawMission 0
scalar OsgEarthNet.uav[22] utilizationEnergyOverdrawMaintenance 0
scalar OsgEarthNet.uav[22] utilizationCountMissions 17
scalar OsgEarthNet.uav[22] utilizationCountManeuversMission 173
scalar OsgEarthNet.uav[22] utilizationCountManeuversMaintenance 34
scalar OsgEarthNet.uav[22] utilizationCountChargeState 17
scalar OsgEarthNet.uav[22] utilizationCountOverdrawnAfterMission 0
scalar OsgEarthNet.uav[22] utilizationCountIdleState 17
scalar OsgEarthNet.uav[22] utilizationFail 0
scalar OsgEarthNet.uav[22] simulationTime 259200
scalar OsgEarthNet.uav[23] utilizationSecMission 31169.921336637
scalar OsgEarthNet.uav[23] utilizationSecMaintenance 10247.709148639
scalar OsgEarthNet.uav[23] utilizationSecCharge 149030
scalar OsgEarthNet.uav[23] utilizationSecIdle 68752.368514724
scalar OsgEarthNet.uav[23] utilizationEnergyMission 144522.47789764
scalar OsgEarthNet.uav[23] utilizationEnergyMaintenance 49166.375278473
scalar OsgEarthNet.uav[23] utilizationEnergyCharge 193688.84765625
scalar OsgEarthNet.uav[23] utilizationEnergyOverdrawMission 0
scalar OsgEarthNet.uav[23] utilizationEnergyOverdrawMaintenance 0
scalar OsgEarthNet.uav[23] utilizationCountMissions 42
scalar OsgEarthNet.uav[23] utilizationCountManeuversMission 479
scalar OsgEarthNet.uav[23] utilizationCountManeuversMaintenance 84
scalar OsgEarthNet.uav[23] utilizationCountChargeState 42
scalar OsgEarthNet.uav[23] utilizationCountOverdrawnAfterMission 0
scalar OsgEarthNet.uav[23] utilizationCountIdleState 24
scalar OsgEarthNet.uav[23] utilizationFail 0
scalar OsgEarthNet.uav[23] simulationTime 259200
scalar OsgEarthNet.uav[24] utilizationSecMission 19743.53953724
scalar OsgEarthNet.uav[24] utilizationSecMaintenance 9191.9660119519
scalar OsgEarthNet.uav[24] utilizationSecCharge 107240
scalar OsgEarthNet.uav[24] utilizationSecIdle 123024.49345081
scalar OsgEarthNet.uav[24] utilizationEnergyMission 91089.301589966
scalar OsgEarthNet.uav[24] utilizationEnergyMaintenance 44425.669746399
scalar OsgEarthNet.uav[24] utilizationEnergyCharge 135515.00976562
scalar OsgEarthNet.uav[24] utilizationEnergyOverdrawMission 0
scalar OsgEarthNet.uav[24] utilizationEnergyOverdrawMaintenance 0
scalar OsgEarthNet.uav[24] utilizationCountMissions 29
scalar OsgEarthNet.uav[24] utilizationCountManeuversMission 330
scalar OsgEarthNet.uav[24] utilizationCountManeuversMaintenance 58
scalar OsgEarthNet.uav[24] utilizationCountChargeState 29
scalar OsgEarthNet.uav[24] utilizationCountOverdrawnAfterMission 0
scalar OsgEarthNet.uav[24] utilizationCountIdleState 26
scalar OsgEarthNet.uav[24] utilizationFail 0
scalar OsgEarthNet.uav[24] simulationTime 259200
scalar OsgEarthNet.uav[25] utilizationSecMission 44019.903833316
scalar OsgEarthNet.uav[25] utilizationSecMaintenance 7828.4221150977
scalar OsgEarthNet.uav[25] utilizationSecCharge 171580
scalar OsgEarthNet.uav[25] utilizationSecIdle 35771.673051586
scalar OsgEarthNet.uav[25] utilizationEnergyMission 202605.52207324
scalar OsgEarthNet.uav[25] utilizationEnergyMaintenance 35655.082145691
scalar OsgEarthNet.uav[25] utilizationEnergyCharge 235910.70947266
scalar OsgEarthNet.uav[25] utilizationEnergyOverdrawMission 0
scalar OsgEarthNet.uav[25] utilizationEnergyOverdrawMaintenance 0
scalar OsgEarthNet.uav[25] utilizationCountMissions 49
scalar OsgEarthNet.uav[25] utilizationCountManeuversMission 696
scalar OsgEarthNet.uav[25] utilizationCountManeuversMaintenance 99
scalar OsgEarthNet.uav[25] utilizationCountChargeState 49
scalar OsgEarthNet.uav[25] utilizationCountOverdrawnAfterMission 0
scalar OsgEarthNet.uav[25] utilizationCountIdleState 11
scalar OsgEarthNet.uav[25] utilizationFail 0
scalar OsgEarthNet.uav[25] simulationTime 259200
scalar OsgEarthNet.uav[26] utilizationSecMission 26064.897769314
scalar OsgEarthNet.uav[26] utilizationSecMaintenance 10605.51095375
scalar OsgEarthNet.uav[26] utilizationSecCharge 131088.07661599
scalar OsgEarthNet.uav[26] utilizationSecIdle 91441.51366095
scalar OsgEarthNet.uav[26] utilizationEnergyMission 120375.21479797
scalar OsgEarthNet.uav[26] utilizationEnergyMaintenance 51051.125602722
scalar OsgEarthNet.uav[26] utilizationEnergyCharge 168588.08789062
scalar OsgEarthNet.uav[26] utilizationEnergyOverdrawMission 0
scalar OsgEarthNet.uav[26] utilizationEnergyOverdrawMaintenance 0
scalar OsgEarthNet.uav[26] utilizationCountMissions 37
scalar OsgEarthNet.uav[26] utilizationCountManeuversMission 411
scalar OsgEarthNet.uav[26] utilizationCountManeuversMaintenance 74
scalar OsgEarthNet.uav[26] utilizationCountChargeState 37
scalar OsgEarthNet.uav[26] utilizationCountOverdrawnAfterMission 0
scalar OsgEarthNet.uav[26] utilizationCountIdleState 21
scalar OsgEarthNet.uav[26] utilizationFail 0
scalar OsgEarthNet.uav[26] simulationTime 259200
scalar OsgEarthNet.uav[27] utilizationSecMission 34473.684356865
scalar OsgEarthNet.uav[27] utilizationSecMaintenance 11923.879861808
scalar OsgEarthNet.uav[27] utilizationSecCharge 157355.02788549
scalar OsgEarthNet.uav[27] utilizationSecIdle 55447.406895833
scalar OsgEarthNet.uav[27] utilizationEnergyMission 158732.44004059
scalar OsgEarthNet.uav[27] utilizationEnergyMaintenance 57118.984344482
scalar OsgEarthNet.uav[27] utilizationEnergyCharge 211300.76318359
scalar OsgEarthNet.uav[27] utilizationEnergyOverdrawMission 0
scalar OsgEarthNet.uav[27] utilizationEnergyOverdrawMaintenance 0
scalar OsgEarthNet.uav[27] utilizationCountMissions 47
scalar OsgEarthNet.uav[27] utilizationCountManeuversMission 539
scalar OsgEarthNet.uav[27] utilizationCountManeuversMaintenance 94
scalar OsgEarthNet.uav[27] utilizationCountChargeState 47
scalar OsgEarthNet.uav[27] utilizationCountOverdrawnAfterMission 0
scalar OsgEarthNet.uav[27] utilizationCountIdleState 18
scalar OsgEarthNet.uav[27] utilizationFail 0
scalar OsgEarthNet.uav[27] simulationTime 259200
scalar OsgEarthNet.uav[28] utilizationSecMission 41883.283895436
scalar OsgEarthNet.uav[28] utilizationSecMaintenance 7402.6499608438
scalar OsgEarthNet.uav[28] utilizationSecCharge 163196.88039508
scalar OsgEarthNet.uav[28] utilizationSecIdle 46717.184748635
scalar OsgEarthNet.uav[28] utilizationEnergyMission 193224.61426544
scalar OsgEarthNet.uav[28] utilizationEnergyMaintenance 34201.597412109
scalar OsgEarthNet.uav[28] utilizationEnergyCharge 225641.58300781
scalar OsgEarthNet.uav[28] utilizationEnergyOverdrawMission 0
scalar OsgEarthNet.uav[28] utilizationEnergyOverdrawMaintenance 0
scalar OsgEarthNet.uav[28] utilizationCountMissions 47
scalar OsgEarthNet.uav[28] utilizationCountManeuversMission 662
scalar OsgEarthNet.uav[28] utilizationCountManeuversMaintenance 94
scalar OsgEarthNet.uav[28] utilizationCountChargeState 47
scalar OsgEarthNet.uav[28] utilizationCountOverdrawnAfterMission 0
scalar OsgEarthNet.uav[28] utilizationCountIdleState 9
scalar OsgEarthNet.uav[28] utilizationFail 0
scalar OsgEarthNet.uav[28] simulationTime 259200
scalar OsgEarthNet.uav[29] utilizationSecMission 24835.717756663
scalar OsgEarthNet.uav[29] utilizationSecMaintenance 9908.3216301173
scalar OsgEarthNet.uav[29] utilizationSecCharge 125206.64249973
scalar OsgEarthNet.uav[29] utilizationSecIdle 99249.317113489
scalar OsgEarthNet.uav[29] utilizationEnergyMission 115052.33476257
scalar OsgEarthNet.uav[29] utilizationEnergyMaintenance 47435.742832184
scalar OsgEarthNet.uav[29] utilizationEnergyCharge 159131.26135254
scalar OsgEarthNet.uav[29] utilizationEnergyOverdrawMission 0
scalar OsgEarthNet.uav[29] utilizationEnergyOverdrawMaintenance 0
scalar OsgEarthNet.uav[29] utilizationCountMissions 35
scalar OsgEarthNet.uav[29] utilizationCountManeuversMission 398
scalar OsgEarthNet.uav[29] utilizationCountManeuversMaintenance 70
scalar OsgEarthNet.uav[29] utilizationCountChargeState 35
scalar OsgEarthNet.uav[29] utilizationCountOverdrawnAfterMission 0
scalar OsgEarthNet.uav[29] utilizationCountIdleState 25
scalar OsgEarthNet.uav[29] utilizationFail 0
scalar OsgEarthNet.uav[29] simulationTime 259200
scalar OsgEarthNet.uav[30] utilizationSecMission 31310.532097207
scalar OsgEarthNet.uav[30] utilizationSecMaintenance 10570.480380981
scalar OsgEarthNet.uav[30] utilizationSecCharge 151450
scalar OsgEarthNet.uav[30] utilizationSecIdle 65868.986521812
scalar OsgEarthNet.uav[30] utilizationEnergyMission 143921.83042145
scalar OsgEarthNet.uav[30] utilizationEnergyMaintenance 50881.400913239
scalar OsgEarthNet.uav[30] utilizationEnergyCharge 194739.34179688
scalar OsgEarthNet.uav[30] utilizationEnergyOverdrawMission 0
scalar OsgEarthNet.uav[30] utilizationEnergyOverdrawMaintenance 0
scalar OsgEarthNet.uav[30] utilizationCountMissions 42
scalar OsgEarthNet.uav[30] utilizationCountManeuversMission 486
scalar OsgEarthNet.uav[30] utilizationCountManeuversMaintenance 84
scalar OsgEarthNet.uav[30] utilizationCountChargeState 42
scalar OsgEarthNet.uav[30] utilizationCountOverdrawnAfterMission 0
scalar OsgEarthNet.uav[30] utilizationCountIdleState 23
scalar OsgEarthNet.uav[30] utilizationFail 0
scalar OsgEarthNet.uav[30] simulationTime 259200
scalar OsgEarthNet.uav[31] utilizationSecMission 13802.488721426
scalar OsgEarthNet.uav[31] utilizationSecMaintenance 5656.9468427728
scalar OsgEarthNet.uav[31] utilizationSecCharge 71880
scalar OsgEarthNet.uav[31] utilizationSecIdle 167860.5634358
scalar OsgEarthNet.uav[31] utilizationEnergyMission 64043.453010559
scalar OsgEarthNet.uav[31] utilizationEnergyMaintenance 26524.365768433
scalar OsgEarthNet.uav[31] utilizationEnergyCharge 90512.736328125
scalar OsgEarthNet.uav[31] utilizationEnergyOverdrawMission 0
scalar OsgEarthNet.uav[31] utilizationEnergyOverdrawMaintenance 0
scalar OsgEarthNet.uav[31] utilizationCountMissions 19
scalar OsgEarthNet.uav[31] utilizationCountManeuversMission 224
scalar OsgEarthNet.uav[31] utilizationCountManeuversMaintenance 38
scalar OsgEarthNet.uav[31] utilizationCountChargeState 19
scalar OsgEarthNet.uav[31] utilizationCountOverdrawnAfterMission 0
scalar OsgEarthNet.uav[31] utilizationCountIdleState 19
scalar OsgEarthNet.uav[31] utilizationFail 0
scalar OsgEarthNet.uav[31] simulationTime 259200
scalar OsgEarthNet.uav[32] utilizationSecMission 18984.521960142
scalar OsgEarthNet.uav[32] utilizationSecMaintenance 7340.1465656381
scalar OsgEarthNet.uav[32] utilizationSecCharge 92893.33047422
scalar OsgEarthNet.uav[32] utilizationSecIdle 139982
scalar OsgEarthNet.uav[32] utilizationEnergyMission 87519.902410103
scalar OsgEarthNet.uav[32] utilizationEnergyMaintenance 34956.176769257
scalar OsgEarthNet.uav[32] utilizationEnergyCharge 119499.0904541
scalar OsgEarthNet.uav[32] utilizationEnergyOverdrawMission 0
scalar OsgEarthNet.uav[32] utilizationEnergyOverdrawMaintenance 0
scalar OsgEarthNet.uav[32] utilizationCountMissions 26
scalar OsgEarthNet.uav[32] utilizationCountManeuversMission 302
scalar OsgEarthNet.uav[32] utilizationCountManeuversMaintenance 51
scalar OsgEarthNet.uav[32] utilizationCountChargeState 26
scalar OsgEarthNet.uav[32] utilizationCountOverdrawnAfterMission 0
scalar OsgEarthNet.uav[32] utilizationCountIdleState 18
scalar OsgEarthNet.uav[32] utilizationFail 0
scalar OsgEarthNet.uav[32] simulationTime 259200
scalar OsgEarthNet.uav[33] utilizationSecMission 16251.592657903
scalar OsgEarthNet.uav[33] utilizationSecMaintenance 7016.5846261764
scalar OsgEarthNet.uav[33] utilizationSecCharge 85760
scalar OsgEarthNet.uav[33] utilizationSecIdle 150171.82171592
scalar OsgEarthNet.uav[33] utilizationEnergyMission 74500.012969971
scalar OsgEarthNet.uav[33] utilizationEnergyMaintenance 33832.272737755
scalar OsgEarthNet.uav[33] utilizationEnergyCharge 108303.71044922
scalar OsgEarthNet.uav[33] utilizationEnergyOverdrawMission 0
scalar OsgEarthNet.uav[33] utilizationEnergyOverdrawMaintenance 0
scalar OsgEarthNet.uav[33] utilizationCountMissions 23
scalar OsgEarthNet.uav[33] utilizationCountManeuversMission 256
scalar OsgEarthNet.uav[33] utilizationCountManeuversMaintenance 47
scalar OsgEarthNet.uav[33] utilizationCountChargeState 23
scalar OsgEarthNet.uav[33] utilizationCountOverdrawnAfterMission 0
scalar OsgEarthNet.uav[33] utilizationCountIdleState 21
scalar OsgEarthNet.uav[33] utilizationFail 0
scalar OsgEarthNet.uav[33] simulationTime 259200
scalar OsgEarthNet.uav[34] utilizationSecMission 36088.088124388
scalar OsgEarthNet.uav[34] utilizationSecMaintenance 16759.194977095
scalar OsgEarthNet.uav[34] utilizationSecCharge 192506.3696429
scalar OsgEarthNet.uav[34] utilizationSecIdle 13846.34625562
scalar OsgEarthNet.uav[34] utilizationEnergyMission 166727.77578354
scalar OsgEarthNet.uav[34] utilizationEnergyMaintenance 78411.505569458
scalar OsgEarthNet.uav[34] utilizationEnergyCharge 244943.80908203
scalar OsgEarthNet.uav[34] utilizationEnergyOverdrawMission 0
scalar OsgEarthNet.uav[34] utilizationEnergyOverdrawMaintenance 0
scalar OsgEarthNet.uav[34] utilizationCountMissions 52
scalar OsgEarthNet.uav[34] utilizationCountManeuversMission 676
scalar OsgEarthNet.uav[34] utilizationCountManeuversMaintenance 104
scalar OsgEarthNet.uav[34] utilizationCountChargeState 52
scalar OsgEarthNet.uav[34] utilizationCountOverdrawnAfterMission 0
scalar OsgEarthNet.uav[34] utilizationCountIdleState 27
scalar OsgEarthNet.uav[34] utilizationFail 0
scalar OsgEarthNet.uav[34] simulationTime 259200
scalar OsgEarthNet.uav[35] utilizationSecMission 11768.936240044
scalar OsgEarthNet.uav[35] utilizationSecMaintenance 4682.1543140855
scalar OsgEarthNet.uav[35] utilizationSecCharge 60930
scalar OsgEarthNet.uav[35] utilizationSecIdle 181818.90844587
scalar OsgEarthNet.uav[35] utilizationEnergyMission 54757.844108582
scalar OsgEarthNet.uav[35] utilizationEnergyMaintenance 22399.980876923
scalar OsgEarthNet.uav[35] utilizationEnergyCharge 77166.158691406
scalar OsgEarthNet.uav[35] utilizationEnergyOverdrawMission 0
scalar OsgEarthNet.uav[35] utilizationEnergyOverdrawMaintenance 0
scalar OsgEarthNet.uav[35] utilizationCountMissions 16
scalar OsgEarthNet.uav[35] utilizationCountManeuversMission 189
scalar OsgEarthNet.uav[35] utilizationCountManeuversMaintenance 32
scalar OsgEarthNet.uav[35] utilizationCountChargeState 16
scalar OsgEarthNet.uav[35] utilizationCountOverdrawnAfterMission 0
scalar OsgEarthNet.uav[35] utilizationCountIdleState 16
scalar OsgEarthNet.uav[35] utilizationFail 0
scalar OsgEarthNet.uav[35] simulationTime 259200
scalar OsgEarthNet.uav[36] utilizationSecMission 9284.9466922044
scalar OsgEarthNet.uav[36] utilizationSecMaintenance 4743.6160752643
scalar OsgEarthNet.uav[36] utilizationSecCharge 52150
scalar OsgEarthNet.uav[36] utilizationSecIdle 193021.43623253
scalar OsgEarthNet.uav[36] utilizationEnergyMission 42339.649703979
scalar OsgEarthNet.uav[36] utilizationEnergyMaintenance 22771.200550079
scalar OsgEarthNet.uav[36] utilizationEnergyCharge 65025.047363281
scalar OsgEarthNet.uav[36] utilizationEnergyOverdrawMission 0
scalar OsgEarthNet.uav[36] utilizationEnergyOverdrawMaintenance 0
scalar OsgEarthNet.uav[36] utilizationCountMissions 14
scalar OsgEarthNet.uav[36] utilizationCountManeuversMission 146
scalar OsgEarthNet.uav[36] utilizationCountManeuversMaintenance 28
scalar OsgEarthNet.uav[36] utilizationCountChargeState 14
scalar OsgEarthNet.uav[36] utilizationCountOverdrawnAfterMission 0
scalar OsgEarthNet.uav[36] utilizationCountIdleState 15
scalar OsgEarthNet.uav[36] utilizationFail 0
scalar OsgEarthNet.uav[36] simulationTime 259200
scalar OsgEarthNet.uav[37] utilizationSecMission 26341.440646269
scalar OsgEarthNet.uav[37] utilizationSecMaintenance 9126.8292286851
scalar OsgEarthNet.uav[37] utilizationSecCharge 123717.02542591
scalar OsgEarthNet.uav[37] utilizationSecIdle 100014.70369913
scalar OsgEarthNet.uav[37] utilizationEnergyMission 122924.97260284
scalar OsgEarthNet.uav[37] utilizationEnergyMaintenance 43714.864437103
scalar OsgEarthNet.uav[37] utilizationEnergyCharge 165988.9152832
scalar OsgEarthNet.uav[37] utilizationEnergyOverdrawMission 0
scalar OsgEarthNet.uav[37] utilizationEnergyOverdrawMaintenance 0
scalar OsgEarthNet.uav[37] utilizationCountMissions 36
scalar OsgEarthNet.uav[37] utilizationCountManeuversMission 407
scalar OsgEarthNet.uav[37] utilizationCountManeuversMaintenance 72
scalar OsgEarthNet.uav[37] utilizationCountChargeState 36
scalar OsgEarthNet.uav[37] utilizationCountOverdrawnAfterMission 0
scalar OsgEarthNet.uav[37] utilizationCountIdleState 10
scalar OsgEarthNet.uav[37] utilizationFail 0
scalar OsgEarthNet.uav[37] simulationTime 259200
scalar OsgEarthNet.uav[38] utilizationSecMission 38534.703043855
scalar OsgEarthNet.uav[38] utilizationSecMaintenance 11618.848383673
scalar OsgEarthNet.uav[38] utilizationSecCharge 175200
scalar OsgEarthNet.uav[38] utilizationSecIdle 33846.447572472
scalar OsgEarthNet.uav[38] utilizationEnergyMission 177784.78457805
scalar OsgEarthNet.uav[38] utilizationEnergyMaintenance 56619.278556824
scalar OsgEarthNet.uav[38] utilizationEnergyCharge 230627.16992188
scalar OsgEarthNet.uav[38] utilizationEnergyOverdrawMission 0
scalar OsgEarthNet.uav[38] utilizationEnergyOverdrawMaintenance 0
scalar OsgEarthNet.uav[38] utilizationCountMissions 50
scalar OsgEarthNet.uav[38] utilizationCountManeuversMission 590
scalar OsgEarthNet.uav[38] utilizationCountManeuversMaintenance 101
scalar OsgEarthNet.uav[38] utilizationCountChargeState 50
scalar OsgEarthNet.uav[38] utilizationCountOverdrawnAfterMission 0
scalar OsgEarthNet.uav[38] utilizationCountIdleState 23
scalar OsgEarthNet.uav[38] utilizationFail 0
scalar OsgEarthNet.uav[38] simulationTime 259200
scalar OsgEarthNet.uav[39] utilizationSecMission 40662.203051887
scalar OsgEarthNet.uav[39] utilizationSecMaintenance 12537.454245759
scalar OsgEarthNet.uav[39] utilizationSecCharge 184502.90945996
scalar OsgEarthNet.uav[39] utilizationSecIdle 21497.432242396
scalar OsgEarthNet.uav[39] utilizationEnergyMission 187057.53695679
scalar OsgEarthNet.uav[39] utilizationEnergyMaintenance 60512.703784943
scalar OsgEarthNet.uav[39] utilizationEnergyCharge 242729.73138428
scalar OsgEarthNet.uav[39] utilizationEnergyOverdrawMission 0
scalar OsgEarthNet.uav[39] utilizationEnergyOverdrawMaintenance 0
scalar OsgEarthNet.uav[39] utilizationCountMissions 54
scalar OsgEarthNet.uav[39] utilizationCountManeuversMission 622
scalar OsgEarthNet.uav[39] utilizationCountManeuversMaintenance 108
scalar OsgEarthNet.uav[39] utilizationCountChargeState 54
scalar OsgEarthNet.uav[39] utilizationCountOverdrawnAfterMission 0
scalar OsgEarthNet.uav[39] utilizationCountIdleState 17
scalar OsgEarthNet.uav[39] utilizationFail 0
scalar OsgEarthNet.uav[39] simulationTime 259200
scalar OsgEarthNet.uav[40] utilizationSecMission 25259.315780989
scalar OsgEarthNet.uav[40] utilizationSecMaintenance 9604.840097382
scalar OsgEarthNet.uav[40] utilizationSecCharge 126890.28933259
scalar OsgEarthNet.uav[40] utilizationSecIdle 97445.553789038
scalar OsgEarthNet.uav[40] utilizationEnergyMission 117846.50174713
scalar OsgEarthNet.uav[40] utilizationEnergyMaintenance 46766.548568726
scalar OsgEarthNet.uav[40] utilizationEnergyCharge 164010.45751953
scalar OsgEarthNet.uav[40] utilizationEnergyOverdrawMission 0
scalar OsgEarthNet.uav[40] utilizationEnergyOverdrawMaintenance 0
scalar OsgEarthNet.uav[40] utilizationCountMissions 35
scalar OsgEarthNet.uav[40] utilizationCountManeuversMission 393
scalar OsgEarthNet.uav[40] utilizationCountManeuversMaintenance 70
scalar OsgEarthNet.uav[40] utilizationCountChargeState 35
scalar OsgEarthNet.uav[40] utilizationCountOverdrawnAfterMission 0
scalar OsgEarthNet.uav[40] utilizationCountIdleState 21
scalar OsgEarthNet.uav[40] utilizationFail 0
scalar OsgEarthNet.uav[40] simulationTime 259200
scalar OsgEarthNet.uav[41] utilizationSecMission 12461.26375952
scalar OsgEarthNet.uav[41] utilizationSecMaintenance 6469.8320885545
scalar OsgEarthNet.uav[41] utilizationSecCharge 67453.168055467
scalar OsgEarthNet.uav[41] utilizationSecIdle 172815.73509646
scalar OsgEarthNet.uav[41] utilizationEnergyMission 58146.491844177
scalar OsgEarthNet.uav[41] utilizationEnergyMaintenance 31382.898990631
scalar OsgEarthNet.uav[41] utilizationEnergyCharge 86120.436767578
scalar OsgEarthNet.uav[41] utilizationEnergyOverdrawMission 0
scalar OsgEarthNet.uav[41] utilizationEnergyOverdrawMaintenance 0
scalar OsgEarthNet.uav[41] utilizationCountMissions 19
scalar OsgEarthNet.uav[41] utilizationCountManeuversMission 205
scalar OsgEarthNet.uav[41] utilizationCountManeuversMaintenance 38
scalar OsgEarthNet.uav[41] utilizationCountChargeState 19
scalar OsgEarthNet.uav[41] utilizationCountOverdrawnAfterMission 0
scalar OsgEarthNet.uav[41] utilizationCountIdleState 16
scalar OsgEarthNet.uav[41] utilizationFail 0
scalar OsgEarthNet.uav[41] simulationTime 259200
scalar OsgEarthNet.uav[42] utilizationSecMission 39861.708611666
scalar OsgEarthNet.uav[42] utilizationSecMaintenance 11071.916827792
scalar OsgEarthNet.uav[42] utilizationSecCharge 177125.66550318
scalar OsgEarthNet.uav[42] utilizationSecIdle 31140.708057366
scalar OsgEarthNet.uav[42] utilizationEnergyMission 184244.46958923
scalar OsgEarthNet.uav[42] utilizationEnergyMaintenance 53442.106555939
scalar OsgEarthNet.uav[42] utilizationEnergyCharge 235034.25585938
scalar OsgEarthNet.uav[42] utilizationEnergyOverdrawMission 0
scalar OsgEarthNet.uav[42] utilizationEnergyOverdrawMaintenance 0
scalar OsgEarthNet.uav[42] utilizationCountMissions 51
scalar OsgEarthNet.uav[42] utilizationCountManeuversMission 615
scalar OsgEarthNet.uav[42] utilizationCountManeuversMaintenance 102
scalar OsgEarthNet.uav[42] utilizationCountChargeState 51
scalar OsgEarthNet.uav[42] utilizationCountOverdrawnAfterMission 0
scalar OsgEarthNet.uav[42] utilizationCountIdleState 20
scalar OsgEarthNet.uav[42] utilizationFail 0
scalar OsgEarthNet.uav[42] simulationTime 259200
scalar OsgEarthNet.uav[43] utilizationSecMission 23283.269456171
scalar OsgEarthNet.uav[43] utilizationSecMaintenance 9249.1433636259
scalar OsgEarthNet.uav[43] utilizationSecCharge 115990
scalar OsgEarthNet.uav[43] utilizationSecIdle 110677.5861802
scalar OsgEarthNet.uav[43] utilizationEnergyMission 108232.19329834
scalar OsgEarthNet.uav[43] utilizationEnergyMaintenance 44823.784507751
scalar OsgEarthNet.uav[43] utilizationEnergyCharge 153055.98388672
scalar OsgEarthNet.uav[43] utilizationEnergyOverdrawMission 0
scalar OsgEarthNet.uav[43] utilizationEnergyOverdrawMaintenance 0
scalar OsgEarthNet.uav[43] utilizationCountMissions 33
scalar OsgEarthNet.uav[43] utilizationCountManeuversMission 370
scalar OsgEarthNet.uav[43] utilizationCountManeuversMaintenance 66
scalar OsgEarthNet.uav[43] utilizationCountChargeState 33
scalar OsgEarthNet.uav[43] utilizationCountOverdrawnAfterMission 0
scalar OsgEarthNet.uav[43] utilizationCountIdleState 18
scalar OsgEarthNet.uav[43] utilizationFail 0
scalar OsgEarthNet.uav[43] simulationTime 259200
scalar OsgEarthNet.uav[44] utilizationSecMission 18574.59858477
scalar OsgEarthNet.uav[44] utilizationSecMaintenance 7503.4004152304
scalar OsgEarthNet.uav[44] utilizationSecCharge 92290
scalar OsgEarthNet.uav[44] utilizationSecIdle 140832
scalar OsgEarthNet.uav[44] utilizationEnergyMission 86190.895811026
scalar OsgEarthNet.uav[44] utilizationEnergyMaintenance 35952.900779724
scalar OsgEarthNet.uav[44] utilizationEnergyCharge 120740.61962891
scalar OsgEarthNet.uav[44] utilizationEnergyOverdrawMission 0
scalar OsgEarthNet.uav[44] utilizationEnergyOverdrawMaintenance 0
scalar OsgEarthNet.uav[44] utilizationCountMissions 26
scalar OsgEarthNet.uav[44] utilizationCountManeuversMission 298
scalar OsgEarthNet.uav[44] utilizationCountManeuversMaintenance 52
scalar OsgEarthNet.uav[44] utilizationCountChargeState 26
scalar OsgEarthNet.uav[44] utilizationCountOverdrawnAfterMission 0
scalar OsgEarthNet.uav[44] utilizationCountIdleState 13
scalar OsgEarthNet.uav[44] utilizationFail 0
scalar OsgEarthNet.uav[44] simulationTime 259200
scalar OsgEarthNet.uav[45] utilizationSecMission 21096.618665077
scalar OsgEarthNet.uav[45] utilizationSecMaintenance 7813.8903018163
scalar OsgEarthNet.uav[45] utilizationSecCharge 107030
scalar OsgEarthNet.uav[45] utilizationSecIdle 123259.49003311
scalar OsgEarthNet.uav[45] utilizationEnergyMission 98047.204338074
scalar OsgEarthNet.uav[45] utilizationEnergyMaintenance 37683.031398773
scalar OsgEarthNet.uav[45] utilizationEnergyCharge 135730.25048828
scalar OsgEarthNet.uav[45] utilizationEnergyOverdrawMission 0
scalar OsgEarthNet.uav[45] utilizationEnergyOverdrawMaintenance 0
scalar OsgEarthNet.uav[45] utilizationCountMissions 29
scalar OsgEarthNet.uav[45] utilizationCountManeuversMission 328
scalar OsgEarthNet.uav[45] utilizationCountManeuversMaintenance 58
scalar OsgEarthNet.uav[45] utilizationCountChargeState 29
scalar OsgEarthNet.uav[45] utilizationCountOverdrawnAfterMission 0
scalar OsgEarthNet.uav[45] utilizationCountIdleState 21
scalar OsgEarthNet.uav[45] utilizationFail 0
scalar OsgEarthNet.uav[45] simulationTime 259200
scalar OsgEarthNet.uav[46] utilizationSecMission 40093.802523046
scalar OsgEarthNet.uav[46] utilizationSecMaintenance 12003.821481906
scalar OsgEarthNet.uav[46] utilizationSecCharge 187700.37499505
scalar OsgEarthNet.uav[46] utilizationSecIdle 19402
scalar OsgEarthNet.uav[46] utilizationEnergyMission 185100.76491586
scalar OsgEarthNet.uav[46] utilizationEnergyMaintenance 59063.288887024
scalar OsgEarthNet.uav[46] utilizationEnergyCharge 244022.953125
scalar OsgEarthNet.uav[46] utilizationEnergyOverdrawMission 0
scalar OsgEarthNet.uav[46] utilizationEnergyOverdrawMaintenance 0
scalar OsgEarthNet.uav[46] utilizationCountMissions 53
scalar OsgEarthNet.uav[46] utilizationCountManeuversMission 608
scalar OsgEarthNet.uav[46] utilizationCountManeuversMaintenance 105
scalar OsgEarthNet.uav[46] utilizationCountChargeState 53
scalar OsgEarthNet.uav[46] utilizationCountOverdrawnAfterMission 0
scalar OsgEarthNet.uav[46] utilizationCountIdleState 22
scalar OsgEarthNet.uav[46] utilizationFail 0
scalar OsgEarthNet.uav[46] simulationTime 259200
scalar OsgEarthNet.uav[47] utilizationSecMission 36026.528513061
scalar OsgEarthNet.uav[47] utilizationSecMaintenance 16672.525917355
scalar OsgEarthNet.uav[47] utilizationSecCharge 190960.59561225
scalar OsgEarthNet.uav[47] utilizationSecIdle 15540.34895733
scalar OsgEarthNet.uav[47] utilizationEnergyMission 166471.697052
scalar OsgEarthNet.uav[47] utilizationEnergyMaintenance 78452.964889526
scalar OsgEarthNet.uav[47] utilizationEnergyCharge 242764.07202148
scalar OsgEarthNet.uav[47] utilizationEnergyOverdrawMission 0
scalar OsgEarthNet.uav[47] utilizationEnergyOverdrawMaintenance 0
scalar OsgEarthNet.uav[47] utilizationCountMissions 52
scalar OsgEarthNet.uav[47] utilizationCountManeuversMission 675
scalar OsgEarthNet.uav[47] utilizationCountManeuversMaintenance 104
scalar OsgEarthNet.uav[47] utilizationCountChargeState 52
scalar OsgEarthNet.uav[47] utilizationCountOverdrawnAfterMission 0
scalar OsgEarthNet.uav[47] utilizationCountIdleState 34
scalar OsgEarthNet.uav[47] utilizationFail 0
scalar OsgEarthNet.uav[47] simulationTime 259200
scalar OsgEarthNet.uav[48] utilizationSecMission 19350.452797662
scalar OsgEarthNet.uav[48] utilizationSecMaintenance 6424.9408184137
scalar OsgEarthNet.uav[48] utilizationSecCharge 94220
scalar OsgEarthNet.uav[48] utilizationSecIdle 139204.60538392
scalar OsgEarthNet.uav[48] utilizationEnergyMission 89494.911895752
scalar OsgEarthNet.uav[48] utilizationEnergyMaintenance 30106.195323944
scalar OsgEarthNet.uav[48] utilizationEnergyCharge 118715.67724609
scalar OsgEarthNet.uav[48] utilizationEnergyOverdrawMission 0
scalar OsgEarthNet.uav[48] utilizationEnergyOverdrawMaintenance 0
scalar OsgEarthNet.uav[48] utilizationCountMissions 25
scalar OsgEarthNet.uav[48] utilizationCountManeuversMission 317
scalar OsgEarthNet.uav[48] utilizationCountManeuversMaintenance 50
scalar OsgEarthNet.uav[48] utilizationCountChargeState 25
scalar OsgEarthNet.uav[48] utilizationCountOverdrawnAfterMission 0
scalar OsgEarthNet.uav[48] utilizationCountIdleState 23
scalar OsgEarthNet.uav[48] utilizationFail 0
scalar OsgEarthNet.uav[48] simulationTime 259200
scalar OsgEarthNet.uav[49] utilizationSecMission 11156.402382444
scalar OsgEarthNet.uav[49] utilizationSecMaintenance 5768.5795856959
scalar OsgEarthNet.uav[49] utilizationSecCharge 63340
scalar OsgEarthNet.uav[49] utilizationSecIdle 178935.01703186
scalar OsgEarthNet.uav[49] utilizationEnergyMission 52458.885696411
scalar OsgEarthNet.uav[49] utilizationEnergyMaintenance 27758.490703583
scalar OsgEarthNet.uav[49] utilizationEnergyCharge 80217.373535156
scalar OsgEarthNet.uav[49] utilizationEnergyOverdrawMission 0
scalar OsgEarthNet.uav[49] utilizationEnergyOverdrawMaintenance 0
scalar OsgEarthNet.uav[49] utilizationCountMissions 17
scalar OsgEarthNet.uav[49] utilizationCountManeuversMission 188
scalar OsgEarthNet.uav[49] utilizationCountManeuversMaintenance 34
scalar OsgEarthNet.uav[49] utilizationCountChargeState 17
scalar OsgEarthNet.uav[49] utilizationCountOverdrawnAfterMission 0
scalar OsgEarthNet.uav[49] utilizationCountIdleState 14
scalar OsgEarthNet.uav[49] utilizationFail 0
scalar OsgEarthNet.uav[49] simulationTime 259200
scalar OsgEarthNet.cs[0] usedPower 22729.901478462
scalar OsgEarthNet.cs[0] chargedPower 22729.901478462
scalar OsgEarthNet.cs[0] chargedMobileNodes 2
scalar OsgEarthNet.cs[0] reservations 7
scalar OsgEarthNet.cs[1] usedPower 930470.12396144
scalar OsgEarthNet.cs[1] chargedPower 930470.12396144
scalar OsgEarthNet.cs[1] chargedMobileNodes 195
scalar OsgEarthNet.cs[1] reservations 200
scalar OsgEarthNet.cs[2] usedPower 1418731.1053038
scalar OsgEarthNet.cs[2] chargedPower 1418731.1053038
scalar OsgEarthNet.cs[2] chargedMobileNodes 98
scalar OsgEarthNet.cs[2] reservations 297
scalar OsgEarthNet.cs[3] usedPower 1699004.0701376
scalar OsgEarthNet.cs[3] chargedPower 1699004.0701376
scalar OsgEarthNet.cs[3] chargedMobileNodes 196
scalar OsgEarthNet.cs[3] reservations 364
scalar OsgEarthNet.cs[4] usedPower 648487.70521471
scalar OsgEarthNet.cs[4] chargedPower 648487.70521471
scalar OsgEarthNet.cs[4] chargedMobileNodes 98
scalar OsgEarthNet.cs[4] reservations 139
scalar OsgEarthNet.cs[5] usedPower 247434.47076319
scalar OsgEarthNet.cs[5] chargedPower 247434.47076319
scalar OsgEarthNet.cs[5] chargedMobileNodes 37
scalar OsgEarthNet.cs[5] reservations 52
scalar OsgEarthNet.cs[6] usedPower 3140214.7802165
scalar OsgEarthNet.cs[6] chargedPower 3140214.7802165
scalar OsgEarthNet.cs[6] chargedMobileNodes 276
scalar OsgEarthNet.cs[6] reservations 684

