version 2
run Szenario_Hotel_Gabelbach-28-20180710-14:40:18-26424
attr configname Szenario_Hotel_Gabelbach
attr datetime 20180710-14:40:18
attr experiment Szenario_Hotel_Gabelbach
attr inifile omnetpp.ini
attr iterationvars "$replM=0, $replSearchM=1"
attr iterationvarsf replM=0,replSearchM=1-
attr measurement "$replM=0, $replSearchM=1"
attr network OsgEarthNet
attr processid 26424
attr repetition 12
attr replication #12
attr resultdir results
attr runnumber 28
attr seedset 28
itervar replM 0
itervar replSearchM 1
param *.osgEarthScene.scene "\"Szenario_Hotel_Gabelbach.earth\""
param *.playgroundLatitude 50.6830269
param *.playgroundLongitude 10.8538055
param *.playgroundWidth 3500m
param *.playgroundHeight 3500m
param *.numUAVs 100
param *.cs[0].posX 3537m
param *.cs[0].posY 965m
param *.cs[0].posZ 538m
param *.cs[1].posX 312m
param *.cs[1].posY 1262m
param *.cs[1].posZ 539m
param *.cs[2].posX 2185m
param *.cs[2].posY 3026m
param *.cs[2].posZ 777m
param *.cs[3].posX 10m
param *.cs[3].posY 2200m
param *.cs[3].posZ 560m
param *.cs[4].posX 750m
param *.cs[4].posY 200m
param *.cs[4].posZ 540m
param *.cs[5].posX 2450m
param *.cs[5].posY 180m
param *.cs[5].posZ 524m
param *.cs[6].posX 3140m
param *.cs[6].posY 1790m
param *.cs[6].posZ 606m
param *.numCSs 7
param *.uav[*].replacementMethod 0
param *.missionControl.replacementSearchMethod 1
param *.*.timeStep 10s
param *.uav[*].commandPreviewCommandCount 20
param *.missionControl.missionFiles "\"missions\\\\Szenario_WB_Hotel_Gabelbach_Mission_Hotel.waypoints,missions\\\\Szenario_WB_Hotel_Gabelbach_Mission_Kickelhahn.waypoints,missions\\\\Szenario_WB_Hotel_Gabelbach_Mission_Ilmenau_Sportplatz.waypoints,missions\\\\Szenario_WB_Hotel_Gabelbach_Mission_Manebach_Mitte.waypoints,missions\\\\Szenario_WB_Hotel_Gabelbach_Mission_Manebach_Sued.waypoints\""
param *.missionControl.missionFiles "\"missions\\\\Szenario_WB_Hotel_Gabelbach_Mission_Hotel.waypoints,missions\\\\Szenario_WB_Hotel_Gabelbach_Mission_Kickelhahn.waypoints,missions\\\\Szenario_WB_Hotel_Gabelbach_Mission_Ilmenau_Sportplatz.waypoints,missions\\\\Szenario_WB_Hotel_Gabelbach_Mission_Manebach_Mitte.waypoints,missions\\\\Szenario_WB_Hotel_Gabelbach_Mission_Manebach_Sued.waypoints,missions\\\\Szenario_WB_Hotel_Gabelbach_Hover_HoheSchlaufe.waypoints,missions\\\\Szenario_WB_Hotel_Gabelbach_Hover_Kickelhahn.waypoints,missions\\\\Szenario_WB_Hotel_Gabelbach_Hover_Gabelbachskopf.waypoints,missions\\\\Szenario_WB_Hotel_Gabelbach_Hover_Dachskopf.waypoints\""
param *.uav[0].startX 3537m
param *.uav[0].startY 965m
param *.uav[0].startZ 539m
param *.uav[1].startX 312m
param *.uav[1].startY 1262m
param *.uav[1].startZ 540m
param *.uav[2].startX 2185m
param *.uav[2].startY 3026m
param *.uav[2].startZ 778m
param *.uav[3].startX 3537m
param *.uav[3].startY 965m
param *.uav[3].startZ 539m
param *.uav[4].startX 312m
param *.uav[4].startY 1262m
param *.uav[4].startZ 540m
param *.uav[5].startX 2185m
param *.uav[5].startY 3026m
param *.uav[5].startZ 778m
param *.uav[6].startX 3537m
param *.uav[6].startY 965m
param *.uav[6].startZ 539m
param *.uav[7].startX 312m
param *.uav[7].startY 1262m
param *.uav[7].startZ 540m
param *.uav[8].startX 2185m
param *.uav[8].startY 3026m
param *.uav[8].startZ 778m
param *.uav[9].startX 3537m
param *.uav[9].startY 965m
param *.uav[9].startZ 539m
param *.uav[10].startX 3537m
param *.uav[10].startY 965m
param *.uav[10].startZ 539m
param *.uav[11].startX 312m
param *.uav[11].startY 1262m
param *.uav[11].startZ 540m
param *.uav[12].startX 2185m
param *.uav[12].startY 3026m
param *.uav[12].startZ 778m
param *.uav[13].startX 3537m
param *.uav[13].startY 965m
param *.uav[13].startZ 539m
param *.uav[14].startX 312m
param *.uav[14].startY 1262m
param *.uav[14].startZ 540m
param *.uav[15].startX 2185m
param *.uav[15].startY 3026m
param *.uav[15].startZ 778m
param *.uav[16].startX 3537m
param *.uav[16].startY 965m
param *.uav[16].startZ 539m
param *.uav[17].startX 312m
param *.uav[17].startY 1262m
param *.uav[17].startZ 540m
param *.uav[18].startX 2185m
param *.uav[18].startY 3026m
param *.uav[18].startZ 778m
param *.uav[19].startX 3537m
param *.uav[19].startY 965m
param *.uav[19].startZ 539m
param *.uav[20].startX 3537m
param *.uav[20].startY 965m
param *.uav[20].startZ 539m
param *.uav[21].startX 312m
param *.uav[21].startY 1262m
param *.uav[21].startZ 540m
param *.uav[22].startX 2185m
param *.uav[22].startY 3026m
param *.uav[22].startZ 778m
param *.uav[23].startX 3537m
param *.uav[23].startY 965m
param *.uav[23].startZ 539m
param *.uav[24].startX 312m
param *.uav[24].startY 1262m
param *.uav[24].startZ 540m
param *.uav[25].startX 2185m
param *.uav[25].startY 3026m
param *.uav[25].startZ 778m
param *.uav[26].startX 3537m
param *.uav[26].startY 965m
param *.uav[26].startZ 539m
param *.uav[27].startX 312m
param *.uav[27].startY 1262m
param *.uav[27].startZ 540m
param *.uav[28].startX 2185m
param *.uav[28].startY 3026m
param *.uav[28].startZ 778m
param *.uav[29].startX 3537m
param *.uav[29].startY 965m
param *.uav[29].startZ 539m
param *.uav[30].startX 3537m
param *.uav[30].startY 965m
param *.uav[30].startZ 539m
param *.uav[31].startX 312m
param *.uav[31].startY 1262m
param *.uav[31].startZ 540m
param *.uav[32].startX 2185m
param *.uav[32].startY 3026m
param *.uav[32].startZ 778m
param *.uav[33].startX 3537m
param *.uav[33].startY 965m
param *.uav[33].startZ 539m
param *.uav[34].startX 312m
param *.uav[34].startY 1262m
param *.uav[34].startZ 540m
param *.uav[35].startX 2185m
param *.uav[35].startY 3026m
param *.uav[35].startZ 778m
param *.uav[36].startX 3537m
param *.uav[36].startY 965m
param *.uav[36].startZ 539m
param *.uav[37].startX 312m
param *.uav[37].startY 1262m
param *.uav[37].startZ 540m
param *.uav[38].startX 2185m
param *.uav[38].startY 3026m
param *.uav[38].startZ 778m
param *.uav[39].startX 3537m
param *.uav[39].startY 965m
param *.uav[39].startZ 539m
param *.uav[40].startX 3537m
param *.uav[40].startY 965m
param *.uav[40].startZ 539m
param *.uav[41].startX 312m
param *.uav[41].startY 1262m
param *.uav[41].startZ 540m
param *.uav[42].startX 2185m
param *.uav[42].startY 3026m
param *.uav[42].startZ 778m
param *.uav[43].startX 3537m
param *.uav[43].startY 965m
param *.uav[43].startZ 539m
param *.uav[44].startX 312m
param *.uav[44].startY 1262m
param *.uav[44].startZ 540m
param *.uav[45].startX 2185m
param *.uav[45].startY 3026m
param *.uav[45].startZ 778m
param *.uav[46].startX 3537m
param *.uav[46].startY 965m
param *.uav[46].startZ 539m
param *.uav[47].startX 312m
param *.uav[47].startY 1262m
param *.uav[47].startZ 540m
param *.uav[48].startX 2185m
param *.uav[48].startY 3026m
param *.uav[48].startZ 778m
param *.uav[49].startX 3537m
param *.uav[49].startY 965m
param *.uav[49].startZ 539m
param *.uav[50].startX 3537m
param *.uav[50].startY 965m
param *.uav[50].startZ 539m
param *.uav[51].startX 312m
param *.uav[51].startY 1262m
param *.uav[51].startZ 540m
param *.uav[52].startX 2185m
param *.uav[52].startY 3026m
param *.uav[52].startZ 778m
param *.uav[53].startX 3537m
param *.uav[53].startY 965m
param *.uav[53].startZ 539m
param *.uav[54].startX 312m
param *.uav[54].startY 1262m
param *.uav[54].startZ 540m
param *.uav[55].startX 2185m
param *.uav[55].startY 3026m
param *.uav[55].startZ 778m
param *.uav[56].startX 3537m
param *.uav[56].startY 965m
param *.uav[56].startZ 539m
param *.uav[57].startX 312m
param *.uav[57].startY 1262m
param *.uav[57].startZ 540m
param *.uav[58].startX 2185m
param *.uav[58].startY 3026m
param *.uav[58].startZ 778m
param *.uav[59].startX 3537m
param *.uav[59].startY 965m
param *.uav[59].startZ 539m
param *.uav[60].startX 3537m
param *.uav[60].startY 965m
param *.uav[60].startZ 539m
param *.uav[61].startX 312m
param *.uav[61].startY 1262m
param *.uav[61].startZ 540m
param *.uav[62].startX 2185m
param *.uav[62].startY 3026m
param *.uav[62].startZ 778m
param *.uav[63].startX 3537m
param *.uav[63].startY 965m
param *.uav[63].startZ 539m
param *.uav[64].startX 312m
param *.uav[64].startY 1262m
param *.uav[64].startZ 540m
param *.uav[65].startX 2185m
param *.uav[65].startY 3026m
param *.uav[65].startZ 778m
param *.uav[66].startX 3537m
param *.uav[66].startY 965m
param *.uav[66].startZ 539m
param *.uav[67].startX 312m
param *.uav[67].startY 1262m
param *.uav[67].startZ 540m
param *.uav[68].startX 2185m
param *.uav[68].startY 3026m
param *.uav[68].startZ 778m
param *.uav[69].startX 3537m
param *.uav[69].startY 965m
param *.uav[69].startZ 539m
param *.uav[70].startX 3537m
param *.uav[70].startY 965m
param *.uav[70].startZ 539m
param *.uav[71].startX 312m
param *.uav[71].startY 1262m
param *.uav[71].startZ 540m
param *.uav[72].startX 2185m
param *.uav[72].startY 3026m
param *.uav[72].startZ 778m
param *.uav[73].startX 3537m
param *.uav[73].startY 965m
param *.uav[73].startZ 539m
param *.uav[74].startX 312m
param *.uav[74].startY 1262m
param *.uav[74].startZ 540m
param *.uav[75].startX 2185m
param *.uav[75].startY 3026m
param *.uav[75].startZ 778m
param *.uav[76].startX 3537m
param *.uav[76].startY 965m
param *.uav[76].startZ 539m
param *.uav[77].startX 312m
param *.uav[77].startY 1262m
param *.uav[77].startZ 540m
param *.uav[78].startX 2185m
param *.uav[78].startY 3026m
param *.uav[78].startZ 778m
param *.uav[79].startX 3537m
param *.uav[79].startY 965m
param *.uav[79].startZ 539m
param *.uav[80].startX 3537m
param *.uav[80].startY 965m
param *.uav[80].startZ 539m
param *.uav[81].startX 312m
param *.uav[81].startY 1262m
param *.uav[81].startZ 540m
param *.uav[82].startX 2185m
param *.uav[82].startY 3026m
param *.uav[82].startZ 778m
param *.uav[83].startX 3537m
param *.uav[83].startY 965m
param *.uav[83].startZ 539m
param *.uav[84].startX 312m
param *.uav[84].startY 1262m
param *.uav[84].startZ 540m
param *.uav[85].startX 2185m
param *.uav[85].startY 3026m
param *.uav[85].startZ 778m
param *.uav[86].startX 3537m
param *.uav[86].startY 965m
param *.uav[86].startZ 539m
param *.uav[87].startX 312m
param *.uav[87].startY 1262m
param *.uav[87].startZ 540m
param *.uav[88].startX 2185m
param *.uav[88].startY 3026m
param *.uav[88].startZ 778m
param *.uav[89].startX 3537m
param *.uav[89].startY 965m
param *.uav[89].startZ 539m
param *.uav[90].startX 3537m
param *.uav[90].startY 965m
param *.uav[90].startZ 539m
param *.uav[91].startX 312m
param *.uav[91].startY 1262m
param *.uav[91].startZ 540m
param *.uav[92].startX 2185m
param *.uav[92].startY 3026m
param *.uav[92].startZ 778m
param *.uav[93].startX 3537m
param *.uav[93].startY 965m
param *.uav[93].startZ 539m
param *.uav[94].startX 312m
param *.uav[94].startY 1262m
param *.uav[94].startZ 540m
param *.uav[95].startX 2185m
param *.uav[95].startY 3026m
param *.uav[95].startZ 778m
param *.uav[96].startX 3537m
param *.uav[96].startY 965m
param *.uav[96].startZ 539m
param *.uav[97].startX 312m
param *.uav[97].startY 1262m
param *.uav[97].startZ 540m
param *.uav[98].startX 2185m
param *.uav[98].startY 3026m
param *.uav[98].startZ 778m
param *.uav[99].startX 3537m
param *.uav[99].startY 965m
param *.uav[99].startZ 539m
param *.osgEarthScene.scene "\"boston.earth\""
param *.playgroundLatitude 42.3558
param *.playgroundLongitude -71.0677
param *.playgroundWidth 400m
param *.playgroundHeight 200m
param *.channelController.connectionColor "\"#0000FF40\""
param *.channelController.showConnections false
param *.uav[*].modelURL "\"quadrocopter.small.obj.15.scale.0,0,90.rot\""
param *.uav[*].labelColor "\"#FF7C00CC\""
param *.uav[*].label2Color "\"#FF7C00EE\""
param *.uav[*].batteryCapacity 5200mAh
param *.uav[*].batteryRemaining uav[index].batteryCapacity
param *.uav[*].predictionQuantile 0.95
param *.uav[*].replacementMethod 2
param *.uav[*].weightedSumWeight 0.5
param *.cs[*].modelURL "\"chargingstation_v1.osgt.2.scale.0,0,0.rot.0,0,-15e-1.trans\""
param *.cs[*].spotsWaiting 999
param *.cs[*].spotsCharging 999
param *.cs[*].chargeEffectivenessPercentage 100
param *.cs[*].nonLinearPhaseStartPercentage 85
param *.cs[*].chargeCurrent 6.0A
param *.cs[*].prioritizeFastCharge true
param *.missionControl.replacementSearchMethod 0
param *.*.timeStep 9s

scalar OsgEarthNet.uav[0] utilizationSecMission 8352.5771676105
scalar OsgEarthNet.uav[0] utilizationSecMaintenance 2500.6157329287
scalar OsgEarthNet.uav[0] utilizationSecCharge 36920
scalar OsgEarthNet.uav[0] utilizationSecIdle 211426.80609946
scalar OsgEarthNet.uav[0] utilizationEnergyMission 38113.689254761
scalar OsgEarthNet.uav[0] utilizationEnergyMaintenance 12094.716562805
scalar OsgEarthNet.uav[0] utilizationEnergyCharge 46016.012207031
scalar OsgEarthNet.uav[0] utilizationEnergyOverdrawMission 0
scalar OsgEarthNet.uav[0] utilizationEnergyOverdrawMaintenance 0
scalar OsgEarthNet.uav[0] utilizationCountMissions 11
scalar OsgEarthNet.uav[0] utilizationCountManeuversMission 127
scalar OsgEarthNet.uav[0] utilizationCountManeuversMaintenance 22
scalar OsgEarthNet.uav[0] utilizationCountChargeState 10
scalar OsgEarthNet.uav[0] utilizationCountOverdrawnAfterMission 0
scalar OsgEarthNet.uav[0] utilizationCountIdleState 10
scalar OsgEarthNet.uav[0] utilizationFail 0
scalar OsgEarthNet.uav[0] simulationTime 259200
scalar OsgEarthNet.uav[1] utilizationSecMission 655.55330183502
scalar OsgEarthNet.uav[1] utilizationSecMaintenance 334.5505930207
scalar OsgEarthNet.uav[1] utilizationSecCharge 3770
scalar OsgEarthNet.uav[1] utilizationSecIdle 254439.89510514
scalar OsgEarthNet.uav[1] utilizationEnergyMission 3026.3869323731
scalar OsgEarthNet.uav[1] utilizationEnergyMaintenance 1705.0517692566
scalar OsgEarthNet.uav[1] utilizationEnergyCharge 4731.4409179688
scalar OsgEarthNet.uav[1] utilizationEnergyOverdrawMission 0
scalar OsgEarthNet.uav[1] utilizationEnergyOverdrawMaintenance 0
scalar OsgEarthNet.uav[1] utilizationCountMissions 1
scalar OsgEarthNet.uav[1] utilizationCountManeuversMission 10
scalar OsgEarthNet.uav[1] utilizationCountManeuversMaintenance 2
scalar OsgEarthNet.uav[1] utilizationCountChargeState 1
scalar OsgEarthNet.uav[1] utilizationCountOverdrawnAfterMission 0
scalar OsgEarthNet.uav[1] utilizationCountIdleState 2
scalar OsgEarthNet.uav[1] utilizationFail 0
scalar OsgEarthNet.uav[1] simulationTime 259200
scalar OsgEarthNet.uav[2] utilizationSecMission 3030.5455138911
scalar OsgEarthNet.uav[2] utilizationSecMaintenance 960.77554035449
scalar OsgEarthNet.uav[2] utilizationSecCharge 14930
scalar OsgEarthNet.uav[2] utilizationSecIdle 240278.67794575
scalar OsgEarthNet.uav[2] utilizationEnergyMission 13925.998664856
scalar OsgEarthNet.uav[2] utilizationEnergyMaintenance 4284.7101898193
scalar OsgEarthNet.uav[2] utilizationEnergyCharge 18655.401367188
scalar OsgEarthNet.uav[2] utilizationEnergyOverdrawMission 0
scalar OsgEarthNet.uav[2] utilizationEnergyOverdrawMaintenance 0
scalar OsgEarthNet.uav[2] utilizationCountMissions 4
scalar OsgEarthNet.uav[2] utilizationCountManeuversMission 52
scalar OsgEarthNet.uav[2] utilizationCountManeuversMaintenance 8
scalar OsgEarthNet.uav[2] utilizationCountChargeState 4
scalar OsgEarthNet.uav[2] utilizationCountOverdrawnAfterMission 0
scalar OsgEarthNet.uav[2] utilizationCountIdleState 5
scalar OsgEarthNet.uav[2] utilizationFail 0
scalar OsgEarthNet.uav[2] simulationTime 259200
scalar OsgEarthNet.uav[3] utilizationSecMission 1919.9597270486
scalar OsgEarthNet.uav[3] utilizationSecMaintenance 1051.7384158787
scalar OsgEarthNet.uav[3] utilizationSecCharge 11390
scalar OsgEarthNet.uav[3] utilizationSecIdle 244838.30085707
scalar OsgEarthNet.uav[3] utilizationEnergyMission 9283.0286407471
scalar OsgEarthNet.uav[3] utilizationEnergyMaintenance 5022.6985321045
scalar OsgEarthNet.uav[3] utilizationEnergyCharge 14305.727050781
scalar OsgEarthNet.uav[3] utilizationEnergyOverdrawMission 0
scalar OsgEarthNet.uav[3] utilizationEnergyOverdrawMaintenance 0
scalar OsgEarthNet.uav[3] utilizationCountMissions 3
scalar OsgEarthNet.uav[3] utilizationCountManeuversMission 30
scalar OsgEarthNet.uav[3] utilizationCountManeuversMaintenance 6
scalar OsgEarthNet.uav[3] utilizationCountChargeState 3
scalar OsgEarthNet.uav[3] utilizationCountOverdrawnAfterMission 0
scalar OsgEarthNet.uav[3] utilizationCountIdleState 4
scalar OsgEarthNet.uav[3] utilizationFail 0
scalar OsgEarthNet.uav[3] simulationTime 259200
scalar OsgEarthNet.uav[4] utilizationSecMission 2597.7086389574
scalar OsgEarthNet.uav[4] utilizationSecMaintenance 1329.1138662397
scalar OsgEarthNet.uav[4] utilizationSecCharge 14480
scalar OsgEarthNet.uav[4] utilizationSecIdle 240793.1764948
scalar OsgEarthNet.uav[4] utilizationEnergyMission 12213.514110565
scalar OsgEarthNet.uav[4] utilizationEnergyMaintenance 6278.5524559021
scalar OsgEarthNet.uav[4] utilizationEnergyCharge 18492.060546875
scalar OsgEarthNet.uav[4] utilizationEnergyOverdrawMission 0
scalar OsgEarthNet.uav[4] utilizationEnergyOverdrawMaintenance 0
scalar OsgEarthNet.uav[4] utilizationCountMissions 4
scalar OsgEarthNet.uav[4] utilizationCountManeuversMission 45
scalar OsgEarthNet.uav[4] utilizationCountManeuversMaintenance 8
scalar OsgEarthNet.uav[4] utilizationCountChargeState 4
scalar OsgEarthNet.uav[4] utilizationCountOverdrawnAfterMission 0
scalar OsgEarthNet.uav[4] utilizationCountIdleState 4
scalar OsgEarthNet.uav[4] utilizationFail 0
scalar OsgEarthNet.uav[4] simulationTime 259200
scalar OsgEarthNet.uav[5] utilizationSecMission 17114.776958469
scalar OsgEarthNet.uav[5] utilizationSecMaintenance 5506.715281339
scalar OsgEarthNet.uav[5] utilizationSecCharge 82840
scalar OsgEarthNet.uav[5] utilizationSecIdle 153738.50676019
scalar OsgEarthNet.uav[5] utilizationEnergyMission 78941.752098083
scalar OsgEarthNet.uav[5] utilizationEnergyMaintenance 25271.961601257
scalar OsgEarthNet.uav[5] utilizationEnergyCharge 103859.12597656
scalar OsgEarthNet.uav[5] utilizationEnergyOverdrawMission 0
scalar OsgEarthNet.uav[5] utilizationEnergyOverdrawMaintenance 0
scalar OsgEarthNet.uav[5] utilizationCountMissions 22
scalar OsgEarthNet.uav[5] utilizationCountManeuversMission 294
scalar OsgEarthNet.uav[5] utilizationCountManeuversMaintenance 44
scalar OsgEarthNet.uav[5] utilizationCountChargeState 22
scalar OsgEarthNet.uav[5] utilizationCountOverdrawnAfterMission 0
scalar OsgEarthNet.uav[5] utilizationCountIdleState 23
scalar OsgEarthNet.uav[5] utilizationFail 0
scalar OsgEarthNet.uav[5] simulationTime 259200
scalar OsgEarthNet.uav[6] utilizationSecMission 8314.774552873
scalar OsgEarthNet.uav[6] utilizationSecMaintenance 2613.281259582
scalar OsgEarthNet.uav[6] utilizationSecCharge 38845.738403558
scalar OsgEarthNet.uav[6] utilizationSecIdle 209426.20478399
scalar OsgEarthNet.uav[6] utilizationEnergyMission 38500.528236389
scalar OsgEarthNet.uav[6] utilizationEnergyMaintenance 12937.646121979
scalar OsgEarthNet.uav[6] utilizationEnergyCharge 49223.627441406
scalar OsgEarthNet.uav[6] utilizationEnergyOverdrawMission 0
scalar OsgEarthNet.uav[6] utilizationEnergyOverdrawMaintenance 0
scalar OsgEarthNet.uav[6] utilizationCountMissions 11
scalar OsgEarthNet.uav[6] utilizationCountManeuversMission 127
scalar OsgEarthNet.uav[6] utilizationCountManeuversMaintenance 22
scalar OsgEarthNet.uav[6] utilizationCountChargeState 11
scalar OsgEarthNet.uav[6] utilizationCountOverdrawnAfterMission 0
scalar OsgEarthNet.uav[6] utilizationCountIdleState 11
scalar OsgEarthNet.uav[6] utilizationFail 0
scalar OsgEarthNet.uav[6] simulationTime 259200
scalar OsgEarthNet.uav[7] utilizationSecMission 4795.2238439567
scalar OsgEarthNet.uav[7] utilizationSecMaintenance 2085.3463876795
scalar OsgEarthNet.uav[7] utilizationSecCharge 25300
scalar OsgEarthNet.uav[7] utilizationSecIdle 227019.42876836
scalar OsgEarthNet.uav[7] utilizationEnergyMission 22163.48739624
scalar OsgEarthNet.uav[7] utilizationEnergyMaintenance 9833.9706420898
scalar OsgEarthNet.uav[7] utilizationEnergyCharge 31997.461425781
scalar OsgEarthNet.uav[7] utilizationEnergyOverdrawMission 0
scalar OsgEarthNet.uav[7] utilizationEnergyOverdrawMaintenance 0
scalar OsgEarthNet.uav[7] utilizationCountMissions 7
scalar OsgEarthNet.uav[7] utilizationCountManeuversMission 83
scalar OsgEarthNet.uav[7] utilizationCountManeuversMaintenance 14
scalar OsgEarthNet.uav[7] utilizationCountChargeState 7
scalar OsgEarthNet.uav[7] utilizationCountOverdrawnAfterMission 0
scalar OsgEarthNet.uav[7] utilizationCountIdleState 6
scalar OsgEarthNet.uav[7] utilizationFail 0
scalar OsgEarthNet.uav[7] simulationTime 259200
scalar OsgEarthNet.uav[8] utilizationSecMission 21258.802945802
scalar OsgEarthNet.uav[8] utilizationSecMaintenance 6630.3921613491
scalar OsgEarthNet.uav[8] utilizationSecCharge 101540
scalar OsgEarthNet.uav[8] utilizationSecIdle 129770.80389285
scalar OsgEarthNet.uav[8] utilizationEnergyMission 97272.986984253
scalar OsgEarthNet.uav[8] utilizationEnergyMaintenance 30171.985931396
scalar OsgEarthNet.uav[8] utilizationEnergyCharge 127233.04785156
scalar OsgEarthNet.uav[8] utilizationEnergyOverdrawMission 0
scalar OsgEarthNet.uav[8] utilizationEnergyOverdrawMaintenance 0
scalar OsgEarthNet.uav[8] utilizationCountMissions 27
scalar OsgEarthNet.uav[8] utilizationCountManeuversMission 365
scalar OsgEarthNet.uav[8] utilizationCountManeuversMaintenance 54
scalar OsgEarthNet.uav[8] utilizationCountChargeState 27
scalar OsgEarthNet.uav[8] utilizationCountOverdrawnAfterMission 0
scalar OsgEarthNet.uav[8] utilizationCountIdleState 28
scalar OsgEarthNet.uav[8] utilizationFail 0
scalar OsgEarthNet.uav[8] simulationTime 259200
scalar OsgEarthNet.uav[9] utilizationSecMission 11972.684503089
scalar OsgEarthNet.uav[9] utilizationSecMaintenance 3672.3239688821
scalar OsgEarthNet.uav[9] utilizationSecCharge 57893.193645709
scalar OsgEarthNet.uav[9] utilizationSecIdle 185661.79688232
scalar OsgEarthNet.uav[9] utilizationEnergyMission 56137.703849792
scalar OsgEarthNet.uav[9] utilizationEnergyMaintenance 17866.651256561
scalar OsgEarthNet.uav[9] utilizationEnergyCharge 73285.098144531
scalar OsgEarthNet.uav[9] utilizationEnergyOverdrawMission 0
scalar OsgEarthNet.uav[9] utilizationEnergyOverdrawMaintenance 0
scalar OsgEarthNet.uav[9] utilizationCountMissions 16
scalar OsgEarthNet.uav[9] utilizationCountManeuversMission 183
scalar OsgEarthNet.uav[9] utilizationCountManeuversMaintenance 32
scalar OsgEarthNet.uav[9] utilizationCountChargeState 16
scalar OsgEarthNet.uav[9] utilizationCountOverdrawnAfterMission 0
scalar OsgEarthNet.uav[9] utilizationCountIdleState 16
scalar OsgEarthNet.uav[9] utilizationFail 0
scalar OsgEarthNet.uav[9] simulationTime 259200
scalar OsgEarthNet.uav[10] utilizationSecMission 9058.1028715484
scalar OsgEarthNet.uav[10] utilizationSecMaintenance 2704.6185232155
scalar OsgEarthNet.uav[10] utilizationSecCharge 43405.455889315
scalar OsgEarthNet.uav[10] utilizationSecIdle 204031.82171592
scalar OsgEarthNet.uav[10] utilizationEnergyMission 42150.809890747
scalar OsgEarthNet.uav[10] utilizationEnergyMaintenance 12954.943099976
scalar OsgEarthNet.uav[10] utilizationEnergyCharge 54929.889160156
scalar OsgEarthNet.uav[10] utilizationEnergyOverdrawMission 0
scalar OsgEarthNet.uav[10] utilizationEnergyOverdrawMaintenance 0
scalar OsgEarthNet.uav[10] utilizationCountMissions 12
scalar OsgEarthNet.uav[10] utilizationCountManeuversMission 136
scalar OsgEarthNet.uav[10] utilizationCountManeuversMaintenance 24
scalar OsgEarthNet.uav[10] utilizationCountChargeState 12
scalar OsgEarthNet.uav[10] utilizationCountOverdrawnAfterMission 0
scalar OsgEarthNet.uav[10] utilizationCountIdleState 12
scalar OsgEarthNet.uav[10] utilizationFail 0
scalar OsgEarthNet.uav[10] simulationTime 259200
scalar OsgEarthNet.uav[11] utilizationSecMission 1847.8432200625
scalar OsgEarthNet.uav[11] utilizationSecMaintenance 1199.587600679
scalar OsgEarthNet.uav[11] utilizationSecCharge 11170
scalar OsgEarthNet.uav[11] utilizationSecIdle 244982.56817926
scalar OsgEarthNet.uav[11] utilizationEnergyMission 8168.1322174072
scalar OsgEarthNet.uav[11] utilizationEnergyMaintenance 5825.7577972412
scalar OsgEarthNet.uav[11] utilizationEnergyCharge 13993.88671875
scalar OsgEarthNet.uav[11] utilizationEnergyOverdrawMission 0
scalar OsgEarthNet.uav[11] utilizationEnergyOverdrawMaintenance 0
scalar OsgEarthNet.uav[11] utilizationCountMissions 3
scalar OsgEarthNet.uav[11] utilizationCountManeuversMission 31
scalar OsgEarthNet.uav[11] utilizationCountManeuversMaintenance 6
scalar OsgEarthNet.uav[11] utilizationCountChargeState 3
scalar OsgEarthNet.uav[11] utilizationCountOverdrawnAfterMission 0
scalar OsgEarthNet.uav[11] utilizationCountIdleState 4
scalar OsgEarthNet.uav[11] utilizationFail 0
scalar OsgEarthNet.uav[11] simulationTime 259200
scalar OsgEarthNet.uav[12] utilizationSecMission 17366.672698583
scalar OsgEarthNet.uav[12] utilizationSecMaintenance 5177.977070822
scalar OsgEarthNet.uav[12] utilizationSecCharge 83100
scalar OsgEarthNet.uav[12] utilizationSecIdle 153555.3492306
scalar OsgEarthNet.uav[12] utilizationEnergyMission 80847.851306915
scalar OsgEarthNet.uav[12] utilizationEnergyMaintenance 23923.560214996
scalar OsgEarthNet.uav[12] utilizationEnergyCharge 104237.77880859
scalar OsgEarthNet.uav[12] utilizationEnergyOverdrawMission 0
scalar OsgEarthNet.uav[12] utilizationEnergyOverdrawMaintenance 0
scalar OsgEarthNet.uav[12] utilizationCountMissions 22
scalar OsgEarthNet.uav[12] utilizationCountManeuversMission 294
scalar OsgEarthNet.uav[12] utilizationCountManeuversMaintenance 44
scalar OsgEarthNet.uav[12] utilizationCountChargeState 22
scalar OsgEarthNet.uav[12] utilizationCountOverdrawnAfterMission 0
scalar OsgEarthNet.uav[12] utilizationCountIdleState 23
scalar OsgEarthNet.uav[12] utilizationFail 0
scalar OsgEarthNet.uav[12] simulationTime 259200
scalar OsgEarthNet.uav[13] utilizationSecMission 12836.843767947
scalar OsgEarthNet.uav[13] utilizationSecMaintenance 4133.8784750015
scalar OsgEarthNet.uav[13] utilizationSecCharge 63839.947627017
scalar OsgEarthNet.uav[13] utilizationSecIdle 178389.32913004
scalar OsgEarthNet.uav[13] utilizationEnergyMission 60535.671264648
scalar OsgEarthNet.uav[13] utilizationEnergyMaintenance 20376.089653015
scalar OsgEarthNet.uav[13] utilizationEnergyCharge 80363.817871094
scalar OsgEarthNet.uav[13] utilizationEnergyOverdrawMission 0
scalar OsgEarthNet.uav[13] utilizationEnergyOverdrawMaintenance 0
scalar OsgEarthNet.uav[13] utilizationCountMissions 17
scalar OsgEarthNet.uav[13] utilizationCountManeuversMission 195
scalar OsgEarthNet.uav[13] utilizationCountManeuversMaintenance 34
scalar OsgEarthNet.uav[13] utilizationCountChargeState 17
scalar OsgEarthNet.uav[13] utilizationCountOverdrawnAfterMission 0
scalar OsgEarthNet.uav[13] utilizationCountIdleState 16
scalar OsgEarthNet.uav[13] utilizationFail 0
scalar OsgEarthNet.uav[13] simulationTime 259200
scalar OsgEarthNet.uav[14] utilizationSecMission 22588.387886843
scalar OsgEarthNet.uav[14] utilizationSecMaintenance 7989.5371554366
scalar OsgEarthNet.uav[14] utilizationSecCharge 114800
scalar OsgEarthNet.uav[14] utilizationSecIdle 113822.07395772
scalar OsgEarthNet.uav[14] utilizationEnergyMission 104851.22214127
scalar OsgEarthNet.uav[14] utilizationEnergyMaintenance 38045.630706787
scalar OsgEarthNet.uav[14] utilizationEnergyCharge 142896.85595703
scalar OsgEarthNet.uav[14] utilizationEnergyOverdrawMission 0
scalar OsgEarthNet.uav[14] utilizationEnergyOverdrawMaintenance 0
scalar OsgEarthNet.uav[14] utilizationCountMissions 31
scalar OsgEarthNet.uav[14] utilizationCountManeuversMission 345
scalar OsgEarthNet.uav[14] utilizationCountManeuversMaintenance 62
scalar OsgEarthNet.uav[14] utilizationCountChargeState 31
scalar OsgEarthNet.uav[14] utilizationCountOverdrawnAfterMission 0
scalar OsgEarthNet.uav[14] utilizationCountIdleState 32
scalar OsgEarthNet.uav[14] utilizationFail 0
scalar OsgEarthNet.uav[14] simulationTime 259200
scalar OsgEarthNet.uav[15] utilizationSecMission 10417.842792663
scalar OsgEarthNet.uav[15] utilizationSecMaintenance 3706.6380382668
scalar OsgEarthNet.uav[15] utilizationSecCharge 52220
scalar OsgEarthNet.uav[15] utilizationSecIdle 192855.51816907
scalar OsgEarthNet.uav[15] utilizationEnergyMission 47532.773498535
scalar OsgEarthNet.uav[15] utilizationEnergyMaintenance 17631.258644104
scalar OsgEarthNet.uav[15] utilizationEnergyCharge 65164.030273438
scalar OsgEarthNet.uav[15] utilizationEnergyOverdrawMission 0
scalar OsgEarthNet.uav[15] utilizationEnergyOverdrawMaintenance 0
scalar OsgEarthNet.uav[15] utilizationCountMissions 14
scalar OsgEarthNet.uav[15] utilizationCountManeuversMission 160
scalar OsgEarthNet.uav[15] utilizationCountManeuversMaintenance 28
scalar OsgEarthNet.uav[15] utilizationCountChargeState 14
scalar OsgEarthNet.uav[15] utilizationCountOverdrawnAfterMission 0
scalar OsgEarthNet.uav[15] utilizationCountIdleState 15
scalar OsgEarthNet.uav[15] utilizationFail 0
scalar OsgEarthNet.uav[15] simulationTime 259200
scalar OsgEarthNet.uav[16] utilizationSecMission 1322.0588448544
scalar OsgEarthNet.uav[16] utilizationSecMaintenance 735.81372700616
scalar OsgEarthNet.uav[16] utilizationSecCharge 7420
scalar OsgEarthNet.uav[16] utilizationSecIdle 249722.12642814
scalar OsgEarthNet.uav[16] utilizationEnergyMission 5859.252822876
scalar OsgEarthNet.uav[16] utilizationEnergyMaintenance 3407.2085189819
scalar OsgEarthNet.uav[16] utilizationEnergyCharge 9266.46484375
scalar OsgEarthNet.uav[16] utilizationEnergyOverdrawMission 0
scalar OsgEarthNet.uav[16] utilizationEnergyOverdrawMaintenance 0
scalar OsgEarthNet.uav[16] utilizationCountMissions 2
scalar OsgEarthNet.uav[16] utilizationCountManeuversMission 21
scalar OsgEarthNet.uav[16] utilizationCountManeuversMaintenance 4
scalar OsgEarthNet.uav[16] utilizationCountChargeState 2
scalar OsgEarthNet.uav[16] utilizationCountOverdrawnAfterMission 0
scalar OsgEarthNet.uav[16] utilizationCountIdleState 3
scalar OsgEarthNet.uav[16] utilizationFail 0
scalar OsgEarthNet.uav[16] simulationTime 259200
scalar OsgEarthNet.uav[17] utilizationSecMission 655.55330183502
scalar OsgEarthNet.uav[17] utilizationSecMaintenance 334.5505930207
scalar OsgEarthNet.uav[17] utilizationSecCharge 3680
scalar OsgEarthNet.uav[17] utilizationSecIdle 254529.89510514
scalar OsgEarthNet.uav[17] utilizationEnergyMission 2920.9206085205
scalar OsgEarthNet.uav[17] utilizationEnergyMaintenance 1658.1332511902
scalar OsgEarthNet.uav[17] utilizationEnergyCharge 4579.056640625
scalar OsgEarthNet.uav[17] utilizationEnergyOverdrawMission 0
scalar OsgEarthNet.uav[17] utilizationEnergyOverdrawMaintenance 0
scalar OsgEarthNet.uav[17] utilizationCountMissions 1
scalar OsgEarthNet.uav[17] utilizationCountManeuversMission 10
scalar OsgEarthNet.uav[17] utilizationCountManeuversMaintenance 2
scalar OsgEarthNet.uav[17] utilizationCountChargeState 1
scalar OsgEarthNet.uav[17] utilizationCountOverdrawnAfterMission 0
scalar OsgEarthNet.uav[17] utilizationCountIdleState 2
scalar OsgEarthNet.uav[17] utilizationFail 0
scalar OsgEarthNet.uav[17] simulationTime 259200
scalar OsgEarthNet.uav[18] utilizationSecMission 14762.444406643
scalar OsgEarthNet.uav[18] utilizationSecMaintenance 4766.9236070653
scalar OsgEarthNet.uav[18] utilizationSecCharge 71860
scalar OsgEarthNet.uav[18] utilizationSecIdle 167810.63098629
scalar OsgEarthNet.uav[18] utilizationEnergyMission 69244.295928955
scalar OsgEarthNet.uav[18] utilizationEnergyMaintenance 21854.474914551
scalar OsgEarthNet.uav[18] utilizationEnergyCharge 90431.672363281
scalar OsgEarthNet.uav[18] utilizationEnergyOverdrawMission 0
scalar OsgEarthNet.uav[18] utilizationEnergyOverdrawMaintenance 0
scalar OsgEarthNet.uav[18] utilizationCountMissions 19
scalar OsgEarthNet.uav[18] utilizationCountManeuversMission 254
scalar OsgEarthNet.uav[18] utilizationCountManeuversMaintenance 38
scalar OsgEarthNet.uav[18] utilizationCountChargeState 19
scalar OsgEarthNet.uav[18] utilizationCountOverdrawnAfterMission 0
scalar OsgEarthNet.uav[18] utilizationCountIdleState 20
scalar OsgEarthNet.uav[18] utilizationFail 0
scalar OsgEarthNet.uav[18] simulationTime 259200
scalar OsgEarthNet.uav[19] utilizationSecMission 4110.7406916429
scalar OsgEarthNet.uav[19] utilizationSecMaintenance 1879.9288058961
scalar OsgEarthNet.uav[19] utilizationSecCharge 22270
scalar OsgEarthNet.uav[19] utilizationSecIdle 230939.32950246
scalar OsgEarthNet.uav[19] utilizationEnergyMission 18858.004814148
scalar OsgEarthNet.uav[19] utilizationEnergyMaintenance 8983.6902046204
scalar OsgEarthNet.uav[19] utilizationEnergyCharge 27841.703125
scalar OsgEarthNet.uav[19] utilizationEnergyOverdrawMission 0
scalar OsgEarthNet.uav[19] utilizationEnergyOverdrawMaintenance 0
scalar OsgEarthNet.uav[19] utilizationCountMissions 6
scalar OsgEarthNet.uav[19] utilizationCountManeuversMission 64
scalar OsgEarthNet.uav[19] utilizationCountManeuversMaintenance 12
scalar OsgEarthNet.uav[19] utilizationCountChargeState 6
scalar OsgEarthNet.uav[19] utilizationCountOverdrawnAfterMission 0
scalar OsgEarthNet.uav[19] utilizationCountIdleState 7
scalar OsgEarthNet.uav[19] utilizationFail 0
scalar OsgEarthNet.uav[19] simulationTime 259200
scalar OsgEarthNet.uav[20] utilizationSecMission 11989.321830798
scalar OsgEarthNet.uav[20] utilizationSecMaintenance 4904.6779210264
scalar OsgEarthNet.uav[20] utilizationSecCharge 63100
scalar OsgEarthNet.uav[20] utilizationSecIdle 179205.99924818
scalar OsgEarthNet.uav[20] utilizationEnergyMission 56208.374000549
scalar OsgEarthNet.uav[20] utilizationEnergyMaintenance 23488.477256775
scalar OsgEarthNet.uav[20] utilizationEnergyCharge 79607.907226562
scalar OsgEarthNet.uav[20] utilizationEnergyOverdrawMission 0
scalar OsgEarthNet.uav[20] utilizationEnergyOverdrawMaintenance 0
scalar OsgEarthNet.uav[20] utilizationCountMissions 17
scalar OsgEarthNet.uav[20] utilizationCountManeuversMission 193
scalar OsgEarthNet.uav[20] utilizationCountManeuversMaintenance 34
scalar OsgEarthNet.uav[20] utilizationCountChargeState 17
scalar OsgEarthNet.uav[20] utilizationCountOverdrawnAfterMission 0
scalar OsgEarthNet.uav[20] utilizationCountIdleState 16
scalar OsgEarthNet.uav[20] utilizationFail 0
scalar OsgEarthNet.uav[20] simulationTime 259200
scalar OsgEarthNet.uav[21] utilizationSecMission 6761.8032491041
scalar OsgEarthNet.uav[21] utilizationSecMaintenance 3175.6451466187
scalar OsgEarthNet.uav[21] utilizationSecCharge 37200
scalar OsgEarthNet.uav[21] utilizationSecIdle 212062.55060428
scalar OsgEarthNet.uav[21] utilizationEnergyMission 31729.470306396
scalar OsgEarthNet.uav[21] utilizationEnergyMaintenance 14964.20608902
scalar OsgEarthNet.uav[21] utilizationEnergyCharge 46693.697265625
scalar OsgEarthNet.uav[21] utilizationEnergyOverdrawMission 0
scalar OsgEarthNet.uav[21] utilizationEnergyOverdrawMaintenance 0
scalar OsgEarthNet.uav[21] utilizationCountMissions 10
scalar OsgEarthNet.uav[21] utilizationCountManeuversMission 116
scalar OsgEarthNet.uav[21] utilizationCountManeuversMaintenance 20
scalar OsgEarthNet.uav[21] utilizationCountChargeState 10
scalar OsgEarthNet.uav[21] utilizationCountOverdrawnAfterMission 0
scalar OsgEarthNet.uav[21] utilizationCountIdleState 10
scalar OsgEarthNet.uav[21] utilizationFail 0
scalar OsgEarthNet.uav[21] simulationTime 259200
scalar OsgEarthNet.uav[22] utilizationSecMission 17176.143280001
scalar OsgEarthNet.uav[22] utilizationSecMaintenance 5412.9322877071
scalar OsgEarthNet.uav[22] utilizationSecCharge 82900
scalar OsgEarthNet.uav[22] utilizationSecIdle 153710.92343229
scalar OsgEarthNet.uav[22] utilizationEnergyMission 79508.577800751
scalar OsgEarthNet.uav[22] utilizationEnergyMaintenance 24243.32327652
scalar OsgEarthNet.uav[22] utilizationEnergyCharge 103974.64941406
scalar OsgEarthNet.uav[22] utilizationEnergyOverdrawMission 0
scalar OsgEarthNet.uav[22] utilizationEnergyOverdrawMaintenance 0
scalar OsgEarthNet.uav[22] utilizationCountMissions 22
scalar OsgEarthNet.uav[22] utilizationCountManeuversMission 293
scalar OsgEarthNet.uav[22] utilizationCountManeuversMaintenance 44
scalar OsgEarthNet.uav[22] utilizationCountChargeState 22
scalar OsgEarthNet.uav[22] utilizationCountOverdrawnAfterMission 0
scalar OsgEarthNet.uav[22] utilizationCountIdleState 23
scalar OsgEarthNet.uav[22] utilizationFail 0
scalar OsgEarthNet.uav[22] simulationTime 259200
scalar OsgEarthNet.uav[23] utilizationSecMission 9510.920696778
scalar OsgEarthNet.uav[23] utilizationSecMaintenance 3414.3584750989
scalar OsgEarthNet.uav[23] utilizationSecCharge 48440
scalar OsgEarthNet.uav[23] utilizationSecIdle 197834.71982812
scalar OsgEarthNet.uav[23] utilizationEnergyMission 44242.314361572
scalar OsgEarthNet.uav[23] utilizationEnergyMaintenance 16258.654354095
scalar OsgEarthNet.uav[23] utilizationEnergyCharge 60500.970214844
scalar OsgEarthNet.uav[23] utilizationEnergyOverdrawMission 0
scalar OsgEarthNet.uav[23] utilizationEnergyOverdrawMaintenance 0
scalar OsgEarthNet.uav[23] utilizationCountMissions 13
scalar OsgEarthNet.uav[23] utilizationCountManeuversMission 144
scalar OsgEarthNet.uav[23] utilizationCountManeuversMaintenance 26
scalar OsgEarthNet.uav[23] utilizationCountChargeState 13
scalar OsgEarthNet.uav[23] utilizationCountOverdrawnAfterMission 0
scalar OsgEarthNet.uav[23] utilizationCountIdleState 14
scalar OsgEarthNet.uav[23] utilizationFail 0
scalar OsgEarthNet.uav[23] simulationTime 259200
scalar OsgEarthNet.uav[24] utilizationSecMission 3163.5795835759
scalar OsgEarthNet.uav[24] utilizationSecMaintenance 1921.7911422148
scalar OsgEarthNet.uav[24] utilizationSecCharge 18730
scalar OsgEarthNet.uav[24] utilizationSecIdle 235384.62827421
scalar OsgEarthNet.uav[24] utilizationEnergyMission 14386.316955566
scalar OsgEarthNet.uav[24] utilizationEnergyMaintenance 9086.6730117798
scalar OsgEarthNet.uav[24] utilizationEnergyCharge 23472.979980469
scalar OsgEarthNet.uav[24] utilizationEnergyOverdrawMission 0
scalar OsgEarthNet.uav[24] utilizationEnergyOverdrawMaintenance 0
scalar OsgEarthNet.uav[24] utilizationCountMissions 5
scalar OsgEarthNet.uav[24] utilizationCountManeuversMission 53
scalar OsgEarthNet.uav[24] utilizationCountManeuversMaintenance 10
scalar OsgEarthNet.uav[24] utilizationCountChargeState 5
scalar OsgEarthNet.uav[24] utilizationCountOverdrawnAfterMission 0
scalar OsgEarthNet.uav[24] utilizationCountIdleState 6
scalar OsgEarthNet.uav[24] utilizationFail 0
scalar OsgEarthNet.uav[24] simulationTime 259200
scalar OsgEarthNet.uav[25] utilizationSecMission 15758.085178434
scalar OsgEarthNet.uav[25] utilizationSecMaintenance 4598.4527783758
scalar OsgEarthNet.uav[25] utilizationSecCharge 72610
scalar OsgEarthNet.uav[25] utilizationSecIdle 166233.46104319
scalar OsgEarthNet.uav[25] utilizationEnergyMission 72861.049720885
scalar OsgEarthNet.uav[25] utilizationEnergyMaintenance 21418.170211792
scalar OsgEarthNet.uav[25] utilizationEnergyCharge 91471.24609375
scalar OsgEarthNet.uav[25] utilizationEnergyOverdrawMission 0
scalar OsgEarthNet.uav[25] utilizationEnergyOverdrawMaintenance 0
scalar OsgEarthNet.uav[25] utilizationCountMissions 19
scalar OsgEarthNet.uav[25] utilizationCountManeuversMission 268
scalar OsgEarthNet.uav[25] utilizationCountManeuversMaintenance 39
scalar OsgEarthNet.uav[25] utilizationCountChargeState 19
scalar OsgEarthNet.uav[25] utilizationCountOverdrawnAfterMission 0
scalar OsgEarthNet.uav[25] utilizationCountIdleState 20
scalar OsgEarthNet.uav[25] utilizationFail 0
scalar OsgEarthNet.uav[25] simulationTime 259200
scalar OsgEarthNet.uav[26] utilizationSecMission 19675.593732366
scalar OsgEarthNet.uav[26] utilizationSecMaintenance 6031.4023667114
scalar OsgEarthNet.uav[26] utilizationSecCharge 94008.676570293
scalar OsgEarthNet.uav[26] utilizationSecIdle 139484.32633063
scalar OsgEarthNet.uav[26] utilizationEnergyMission 90938.207092285
scalar OsgEarthNet.uav[26] utilizationEnergyMaintenance 29351.909873962
scalar OsgEarthNet.uav[26] utilizationEnergyCharge 117987.53540039
scalar OsgEarthNet.uav[26] utilizationEnergyOverdrawMission 0
scalar OsgEarthNet.uav[26] utilizationEnergyOverdrawMaintenance 0
scalar OsgEarthNet.uav[26] utilizationCountMissions 26
scalar OsgEarthNet.uav[26] utilizationCountManeuversMission 301
scalar OsgEarthNet.uav[26] utilizationCountManeuversMaintenance 52
scalar OsgEarthNet.uav[26] utilizationCountChargeState 26
scalar OsgEarthNet.uav[26] utilizationCountOverdrawnAfterMission 0
scalar OsgEarthNet.uav[26] utilizationCountIdleState 26
scalar OsgEarthNet.uav[26] utilizationFail 0
scalar OsgEarthNet.uav[26] simulationTime 259200
scalar OsgEarthNet.uav[27] utilizationSecMission 6414.3504257706
scalar OsgEarthNet.uav[27] utilizationSecMaintenance 3509.6085199633
scalar OsgEarthNet.uav[27] utilizationSecCharge 37120
scalar OsgEarthNet.uav[27] utilizationSecIdle 212156.04005427
scalar OsgEarthNet.uav[27] utilizationEnergyMission 30282.472557068
scalar OsgEarthNet.uav[27] utilizationEnergyMaintenance 16441.086460114
scalar OsgEarthNet.uav[27] utilizationEnergyCharge 46723.5625
scalar OsgEarthNet.uav[27] utilizationEnergyOverdrawMission 0
scalar OsgEarthNet.uav[27] utilizationEnergyOverdrawMaintenance 0
scalar OsgEarthNet.uav[27] utilizationCountMissions 10
scalar OsgEarthNet.uav[27] utilizationCountManeuversMission 109
scalar OsgEarthNet.uav[27] utilizationCountManeuversMaintenance 20
scalar OsgEarthNet.uav[27] utilizationCountChargeState 10
scalar OsgEarthNet.uav[27] utilizationCountOverdrawnAfterMission 0
scalar OsgEarthNet.uav[27] utilizationCountIdleState 9
scalar OsgEarthNet.uav[27] utilizationFail 0
scalar OsgEarthNet.uav[27] simulationTime 259200
scalar OsgEarthNet.uav[28] utilizationSecMission 15810.924600416
scalar OsgEarthNet.uav[28] utilizationSecMaintenance 5667.6245410354
scalar OsgEarthNet.uav[28] utilizationSecCharge 79530
scalar OsgEarthNet.uav[28] utilizationSecIdle 158191.44985855
scalar OsgEarthNet.uav[28] utilizationEnergyMission 73683.139095306
scalar OsgEarthNet.uav[28] utilizationEnergyMaintenance 26352.437480927
scalar OsgEarthNet.uav[28] utilizationEnergyCharge 100238.56884766
scalar OsgEarthNet.uav[28] utilizationEnergyOverdrawMission 0
scalar OsgEarthNet.uav[28] utilizationEnergyOverdrawMaintenance 0
scalar OsgEarthNet.uav[28] utilizationCountMissions 21
scalar OsgEarthNet.uav[28] utilizationCountManeuversMission 278
scalar OsgEarthNet.uav[28] utilizationCountManeuversMaintenance 42
scalar OsgEarthNet.uav[28] utilizationCountChargeState 21
scalar OsgEarthNet.uav[28] utilizationCountOverdrawnAfterMission 0
scalar OsgEarthNet.uav[28] utilizationCountIdleState 22
scalar OsgEarthNet.uav[28] utilizationFail 0
scalar OsgEarthNet.uav[28] simulationTime 259200
scalar OsgEarthNet.uav[29] utilizationSecMission 19868.039818628
scalar OsgEarthNet.uav[29] utilizationSecMaintenance 6235.7608028427
scalar OsgEarthNet.uav[29] utilizationSecCharge 96590
scalar OsgEarthNet.uav[29] utilizationSecIdle 136506.19837853
scalar OsgEarthNet.uav[29] utilizationEnergyMission 90918.108672606
scalar OsgEarthNet.uav[29] utilizationEnergyMaintenance 30028.75812149
scalar OsgEarthNet.uav[29] utilizationEnergyCharge 120358.29736328
scalar OsgEarthNet.uav[29] utilizationEnergyOverdrawMission 0
scalar OsgEarthNet.uav[29] utilizationEnergyOverdrawMaintenance 0
scalar OsgEarthNet.uav[29] utilizationCountMissions 26
scalar OsgEarthNet.uav[29] utilizationCountManeuversMission 308
scalar OsgEarthNet.uav[29] utilizationCountManeuversMaintenance 53
scalar OsgEarthNet.uav[29] utilizationCountChargeState 26
scalar OsgEarthNet.uav[29] utilizationCountOverdrawnAfterMission 0
scalar OsgEarthNet.uav[29] utilizationCountIdleState 27
scalar OsgEarthNet.uav[29] utilizationFail 0
scalar OsgEarthNet.uav[29] simulationTime 259200
scalar OsgEarthNet.uav[30] utilizationSecMission 6006.6572772309
scalar OsgEarthNet.uav[30] utilizationSecMaintenance 2873.1591664152
scalar OsgEarthNet.uav[30] utilizationSecCharge 33470
scalar OsgEarthNet.uav[30] utilizationSecIdle 216850.18255635
scalar OsgEarthNet.uav[30] utilizationEnergyMission 28243.642669678
scalar OsgEarthNet.uav[30] utilizationEnergyMaintenance 13500.106590271
scalar OsgEarthNet.uav[30] utilizationEnergyCharge 41743.757324219
scalar OsgEarthNet.uav[30] utilizationEnergyOverdrawMission 0
scalar OsgEarthNet.uav[30] utilizationEnergyOverdrawMaintenance 0
scalar OsgEarthNet.uav[30] utilizationCountMissions 9
scalar OsgEarthNet.uav[30] utilizationCountManeuversMission 99
scalar OsgEarthNet.uav[30] utilizationCountManeuversMaintenance 18
scalar OsgEarthNet.uav[30] utilizationCountChargeState 9
scalar OsgEarthNet.uav[30] utilizationCountOverdrawnAfterMission 0
scalar OsgEarthNet.uav[30] utilizationCountIdleState 8
scalar OsgEarthNet.uav[30] utilizationFail 0
scalar OsgEarthNet.uav[30] simulationTime 259200
scalar OsgEarthNet.uav[31] utilizationSecMission 6748.4771568065
scalar OsgEarthNet.uav[31] utilizationSecMaintenance 3242.6655173215
scalar OsgEarthNet.uav[31] utilizationSecCharge 36662.452835048
scalar OsgEarthNet.uav[31] utilizationSecIdle 212546.40349082
scalar OsgEarthNet.uav[31] utilizationEnergyMission 31028.229927063
scalar OsgEarthNet.uav[31] utilizationEnergyMaintenance 15492.168205261
scalar OsgEarthNet.uav[31] utilizationEnergyCharge 46427.973632812
scalar OsgEarthNet.uav[31] utilizationEnergyOverdrawMission 0
scalar OsgEarthNet.uav[31] utilizationEnergyOverdrawMaintenance 0
scalar OsgEarthNet.uav[31] utilizationCountMissions 10
scalar OsgEarthNet.uav[31] utilizationCountManeuversMission 109
scalar OsgEarthNet.uav[31] utilizationCountManeuversMaintenance 20
scalar OsgEarthNet.uav[31] utilizationCountChargeState 10
scalar OsgEarthNet.uav[31] utilizationCountOverdrawnAfterMission 0
scalar OsgEarthNet.uav[31] utilizationCountIdleState 10
scalar OsgEarthNet.uav[31] utilizationFail 0
scalar OsgEarthNet.uav[31] simulationTime 259200
scalar OsgEarthNet.uav[32] utilizationSecMission 20627.277662235
scalar OsgEarthNet.uav[32] utilizationSecMaintenance 7098.79322857
scalar OsgEarthNet.uav[32] utilizationSecCharge 102740
scalar OsgEarthNet.uav[32] utilizationSecIdle 128733.92810919
scalar OsgEarthNet.uav[32] utilizationEnergyMission 95820.757183075
scalar OsgEarthNet.uav[32] utilizationEnergyMaintenance 33913.982086182
scalar OsgEarthNet.uav[32] utilizationEnergyCharge 129455.88378906
scalar OsgEarthNet.uav[32] utilizationEnergyOverdrawMission 0
scalar OsgEarthNet.uav[32] utilizationEnergyOverdrawMaintenance 0
scalar OsgEarthNet.uav[32] utilizationCountMissions 27
scalar OsgEarthNet.uav[32] utilizationCountManeuversMission 360
scalar OsgEarthNet.uav[32] utilizationCountManeuversMaintenance 54
scalar OsgEarthNet.uav[32] utilizationCountChargeState 27
scalar OsgEarthNet.uav[32] utilizationCountOverdrawnAfterMission 0
scalar OsgEarthNet.uav[32] utilizationCountIdleState 28
scalar OsgEarthNet.uav[32] utilizationFail 0
scalar OsgEarthNet.uav[32] simulationTime 259200
scalar OsgEarthNet.uav[33] utilizationSecMission 18673.527395287
scalar OsgEarthNet.uav[33] utilizationSecMaintenance 6943.3791502264
scalar OsgEarthNet.uav[33] utilizationSecCharge 92810
scalar OsgEarthNet.uav[33] utilizationSecIdle 140773.09245449
scalar OsgEarthNet.uav[33] utilizationEnergyMission 86140.266601562
scalar OsgEarthNet.uav[33] utilizationEnergyMaintenance 33596.822551931
scalar OsgEarthNet.uav[33] utilizationEnergyCharge 115995.15820312
scalar OsgEarthNet.uav[33] utilizationEnergyOverdrawMission 0
scalar OsgEarthNet.uav[33] utilizationEnergyOverdrawMaintenance 0
scalar OsgEarthNet.uav[33] utilizationCountMissions 26
scalar OsgEarthNet.uav[33] utilizationCountManeuversMission 289
scalar OsgEarthNet.uav[33] utilizationCountManeuversMaintenance 52
scalar OsgEarthNet.uav[33] utilizationCountChargeState 25
scalar OsgEarthNet.uav[33] utilizationCountOverdrawnAfterMission 0
scalar OsgEarthNet.uav[33] utilizationCountIdleState 26
scalar OsgEarthNet.uav[33] utilizationFail 0
scalar OsgEarthNet.uav[33] simulationTime 259200
scalar OsgEarthNet.uav[34] utilizationSecMission 3141.5881607399
scalar OsgEarthNet.uav[34] utilizationSecMaintenance 1842.4905355543
scalar OsgEarthNet.uav[34] utilizationSecCharge 18760
scalar OsgEarthNet.uav[34] utilizationSecIdle 235455.92030371
scalar OsgEarthNet.uav[34] utilizationEnergyMission 14673.418571472
scalar OsgEarthNet.uav[34] utilizationEnergyMaintenance 8811.0414505005
scalar OsgEarthNet.uav[34] utilizationEnergyCharge 23484.445800781
scalar OsgEarthNet.uav[34] utilizationEnergyOverdrawMission 0
scalar OsgEarthNet.uav[34] utilizationEnergyOverdrawMaintenance 0
scalar OsgEarthNet.uav[34] utilizationCountMissions 5
scalar OsgEarthNet.uav[34] utilizationCountManeuversMission 52
scalar OsgEarthNet.uav[34] utilizationCountManeuversMaintenance 10
scalar OsgEarthNet.uav[34] utilizationCountChargeState 5
scalar OsgEarthNet.uav[34] utilizationCountOverdrawnAfterMission 0
scalar OsgEarthNet.uav[34] utilizationCountIdleState 6
scalar OsgEarthNet.uav[34] utilizationFail 0
scalar OsgEarthNet.uav[34] simulationTime 259200
scalar OsgEarthNet.uav[35] utilizationSecMission 9200.6754449466
scalar OsgEarthNet.uav[35] utilizationSecMaintenance 4764.4778276409
scalar OsgEarthNet.uav[35] utilizationSecCharge 52020
scalar OsgEarthNet.uav[35] utilizationSecIdle 193214.84572741
scalar OsgEarthNet.uav[35] utilizationEnergyMission 42966.526504517
scalar OsgEarthNet.uav[35] utilizationEnergyMaintenance 22488.287818909
scalar OsgEarthNet.uav[35] utilizationEnergyCharge 65454.794433594
scalar OsgEarthNet.uav[35] utilizationEnergyOverdrawMission 0
scalar OsgEarthNet.uav[35] utilizationEnergyOverdrawMaintenance 0
scalar OsgEarthNet.uav[35] utilizationCountMissions 14
scalar OsgEarthNet.uav[35] utilizationCountManeuversMission 154
scalar OsgEarthNet.uav[35] utilizationCountManeuversMaintenance 28
scalar OsgEarthNet.uav[35] utilizationCountChargeState 14
scalar OsgEarthNet.uav[35] utilizationCountOverdrawnAfterMission 0
scalar OsgEarthNet.uav[35] utilizationCountIdleState 13
scalar OsgEarthNet.uav[35] utilizationFail 0
scalar OsgEarthNet.uav[35] simulationTime 259200
scalar OsgEarthNet.uav[36] utilizationSecMission 10203.179495637
scalar OsgEarthNet.uav[36] utilizationSecMaintenance 4153.528123487
scalar OsgEarthNet.uav[36] utilizationSecCharge 53020
scalar OsgEarthNet.uav[36] utilizationSecIdle 191823.29138088
scalar OsgEarthNet.uav[36] utilizationEnergyMission 46656.598678589
scalar OsgEarthNet.uav[36] utilizationEnergyMaintenance 20032.549518585
scalar OsgEarthNet.uav[36] utilizationEnergyCharge 66689.142578125
scalar OsgEarthNet.uav[36] utilizationEnergyOverdrawMission 0
scalar OsgEarthNet.uav[36] utilizationEnergyOverdrawMaintenance 0
scalar OsgEarthNet.uav[36] utilizationCountMissions 14
scalar OsgEarthNet.uav[36] utilizationCountManeuversMission 161
scalar OsgEarthNet.uav[36] utilizationCountManeuversMaintenance 28
scalar OsgEarthNet.uav[36] utilizationCountChargeState 14
scalar OsgEarthNet.uav[36] utilizationCountOverdrawnAfterMission 0
scalar OsgEarthNet.uav[36] utilizationCountIdleState 15
scalar OsgEarthNet.uav[36] utilizationFail 0
scalar OsgEarthNet.uav[36] simulationTime 259200
scalar OsgEarthNet.uav[37] utilizationSecMission 9045.7154889023
scalar OsgEarthNet.uav[37] utilizationSecMaintenance 4000.0136460839
scalar OsgEarthNet.uav[37] utilizationSecCharge 48420
scalar OsgEarthNet.uav[37] utilizationSecIdle 197734.26986501
scalar OsgEarthNet.uav[37] utilizationEnergyMission 41457.778007507
scalar OsgEarthNet.uav[37] utilizationEnergyMaintenance 19354.626747131
scalar OsgEarthNet.uav[37] utilizationEnergyCharge 60812.399414062
scalar OsgEarthNet.uav[37] utilizationEnergyOverdrawMission 0
scalar OsgEarthNet.uav[37] utilizationEnergyOverdrawMaintenance 0
scalar OsgEarthNet.uav[37] utilizationCountMissions 13
scalar OsgEarthNet.uav[37] utilizationCountManeuversMission 153
scalar OsgEarthNet.uav[37] utilizationCountManeuversMaintenance 26
scalar OsgEarthNet.uav[37] utilizationCountChargeState 13
scalar OsgEarthNet.uav[37] utilizationCountOverdrawnAfterMission 0
scalar OsgEarthNet.uav[37] utilizationCountIdleState 12
scalar OsgEarthNet.uav[37] utilizationFail 0
scalar OsgEarthNet.uav[37] simulationTime 259200
scalar OsgEarthNet.uav[38] utilizationSecMission 18979.27506348
scalar OsgEarthNet.uav[38] utilizationSecMaintenance 6207.5255537018
scalar OsgEarthNet.uav[38] utilizationSecCharge 90460
scalar OsgEarthNet.uav[38] utilizationSecIdle 143553.19838282
scalar OsgEarthNet.uav[38] utilizationEnergyMission 87191.157591645
scalar OsgEarthNet.uav[38] utilizationEnergyMaintenance 28920.95708847
scalar OsgEarthNet.uav[38] utilizationEnergyCharge 113753.53027344
scalar OsgEarthNet.uav[38] utilizationEnergyOverdrawMission 0
scalar OsgEarthNet.uav[38] utilizationEnergyOverdrawMaintenance 0
scalar OsgEarthNet.uav[38] utilizationCountMissions 24
scalar OsgEarthNet.uav[38] utilizationCountManeuversMission 330
scalar OsgEarthNet.uav[38] utilizationCountManeuversMaintenance 49
scalar OsgEarthNet.uav[38] utilizationCountChargeState 24
scalar OsgEarthNet.uav[38] utilizationCountOverdrawnAfterMission 0
scalar OsgEarthNet.uav[38] utilizationCountIdleState 25
scalar OsgEarthNet.uav[38] utilizationFail 0
scalar OsgEarthNet.uav[38] simulationTime 259200
scalar OsgEarthNet.uav[39] utilizationSecMission 22430.102734161
scalar OsgEarthNet.uav[39] utilizationSecMaintenance 7340.4622912542
scalar OsgEarthNet.uav[39] utilizationSecCharge 111240
scalar OsgEarthNet.uav[39] utilizationSecIdle 118189.43397459
scalar OsgEarthNet.uav[39] utilizationEnergyMission 103633.91924286
scalar OsgEarthNet.uav[39] utilizationEnergyMaintenance 35008.512989044
scalar OsgEarthNet.uav[39] utilizationEnergyCharge 138545.21582031
scalar OsgEarthNet.uav[39] utilizationEnergyOverdrawMission 0
scalar OsgEarthNet.uav[39] utilizationEnergyOverdrawMaintenance 0
scalar OsgEarthNet.uav[39] utilizationCountMissions 30
scalar OsgEarthNet.uav[39] utilizationCountManeuversMission 341
scalar OsgEarthNet.uav[39] utilizationCountManeuversMaintenance 60
scalar OsgEarthNet.uav[39] utilizationCountChargeState 30
scalar OsgEarthNet.uav[39] utilizationCountOverdrawnAfterMission 0
scalar OsgEarthNet.uav[39] utilizationCountIdleState 31
scalar OsgEarthNet.uav[39] utilizationFail 0
scalar OsgEarthNet.uav[39] simulationTime 259200
scalar OsgEarthNet.uav[40] utilizationSecMission 18409.138783008
scalar OsgEarthNet.uav[40] utilizationSecMaintenance 6299.6894837449
scalar OsgEarthNet.uav[40] utilizationSecCharge 92030
scalar OsgEarthNet.uav[40] utilizationSecIdle 142461.17073325
scalar OsgEarthNet.uav[40] utilizationEnergyMission 85471.109153748
scalar OsgEarthNet.uav[40] utilizationEnergyMaintenance 30142.599852711
scalar OsgEarthNet.uav[40] utilizationEnergyCharge 115184.93896484
scalar OsgEarthNet.uav[40] utilizationEnergyOverdrawMission 0
scalar OsgEarthNet.uav[40] utilizationEnergyOverdrawMaintenance 0
scalar OsgEarthNet.uav[40] utilizationCountMissions 25
scalar OsgEarthNet.uav[40] utilizationCountManeuversMission 285
scalar OsgEarthNet.uav[40] utilizationCountManeuversMaintenance 51
scalar OsgEarthNet.uav[40] utilizationCountChargeState 25
scalar OsgEarthNet.uav[40] utilizationCountOverdrawnAfterMission 0
scalar OsgEarthNet.uav[40] utilizationCountIdleState 24
scalar OsgEarthNet.uav[40] utilizationFail 0
scalar OsgEarthNet.uav[40] simulationTime 259200
scalar OsgEarthNet.uav[41] utilizationSecMission 22203.895288573
scalar OsgEarthNet.uav[41] utilizationSecMaintenance 7755.4101123166
scalar OsgEarthNet.uav[41] utilizationSecCharge 110392.34099185
scalar OsgEarthNet.uav[41] utilizationSecIdle 118848.35260726
scalar OsgEarthNet.uav[41] utilizationEnergyMission 102773.30366516
scalar OsgEarthNet.uav[41] utilizationEnergyMaintenance 37456.421314239
scalar OsgEarthNet.uav[41] utilizationEnergyCharge 138859.8527832
scalar OsgEarthNet.uav[41] utilizationEnergyOverdrawMission 0
scalar OsgEarthNet.uav[41] utilizationEnergyOverdrawMaintenance 0
scalar OsgEarthNet.uav[41] utilizationCountMissions 30
scalar OsgEarthNet.uav[41] utilizationCountManeuversMission 344
scalar OsgEarthNet.uav[41] utilizationCountManeuversMaintenance 60
scalar OsgEarthNet.uav[41] utilizationCountChargeState 30
scalar OsgEarthNet.uav[41] utilizationCountOverdrawnAfterMission 0
scalar OsgEarthNet.uav[41] utilizationCountIdleState 30
scalar OsgEarthNet.uav[41] utilizationFail 0
scalar OsgEarthNet.uav[41] simulationTime 259200
scalar OsgEarthNet.uav[42] utilizationSecMission 21977.951651784
scalar OsgEarthNet.uav[42] utilizationSecMaintenance 6912.9989921742
scalar OsgEarthNet.uav[42] utilizationSecCharge 102726.34568832
scalar OsgEarthNet.uav[42] utilizationSecIdle 127582.70266772
scalar OsgEarthNet.uav[42] utilizationEnergyMission 101696.94017029
scalar OsgEarthNet.uav[42] utilizationEnergyMaintenance 31929.171020508
scalar OsgEarthNet.uav[42] utilizationEnergyCharge 129444.46981812
scalar OsgEarthNet.uav[42] utilizationEnergyOverdrawMission 0
scalar OsgEarthNet.uav[42] utilizationEnergyOverdrawMaintenance 0
scalar OsgEarthNet.uav[42] utilizationCountMissions 28
scalar OsgEarthNet.uav[42] utilizationCountManeuversMission 376
scalar OsgEarthNet.uav[42] utilizationCountManeuversMaintenance 56
scalar OsgEarthNet.uav[42] utilizationCountChargeState 28
scalar OsgEarthNet.uav[42] utilizationCountOverdrawnAfterMission 0
scalar OsgEarthNet.uav[42] utilizationCountIdleState 28
scalar OsgEarthNet.uav[42] utilizationFail 0
scalar OsgEarthNet.uav[42] simulationTime 259200
scalar OsgEarthNet.uav[43] utilizationSecMission 13470.901289074
scalar OsgEarthNet.uav[43] utilizationSecMaintenance 5409.9141856625
scalar OsgEarthNet.uav[43] utilizationSecCharge 70050
scalar OsgEarthNet.uav[43] utilizationSecIdle 170269.18352526
scalar OsgEarthNet.uav[43] utilizationEnergyMission 61930.895606995
scalar OsgEarthNet.uav[43] utilizationEnergyMaintenance 25760.314487457
scalar OsgEarthNet.uav[43] utilizationEnergyCharge 87691.211425781
scalar OsgEarthNet.uav[43] utilizationEnergyOverdrawMission 0
scalar OsgEarthNet.uav[43] utilizationEnergyOverdrawMaintenance 0
scalar OsgEarthNet.uav[43] utilizationCountMissions 19
scalar OsgEarthNet.uav[43] utilizationCountManeuversMission 221
scalar OsgEarthNet.uav[43] utilizationCountManeuversMaintenance 38
scalar OsgEarthNet.uav[43] utilizationCountChargeState 19
scalar OsgEarthNet.uav[43] utilizationCountOverdrawnAfterMission 0
scalar OsgEarthNet.uav[43] utilizationCountIdleState 17
scalar OsgEarthNet.uav[43] utilizationFail 0
scalar OsgEarthNet.uav[43] simulationTime 259200
scalar OsgEarthNet.uav[44] utilizationSecMission 5374.4929120518
scalar OsgEarthNet.uav[44] utilizationSecMaintenance 2643.6121797623
scalar OsgEarthNet.uav[44] utilizationSecCharge 29710
scalar OsgEarthNet.uav[44] utilizationSecIdle 221471.89390819
scalar OsgEarthNet.uav[44] utilizationEnergyMission 24542.95677948
scalar OsgEarthNet.uav[44] utilizationEnergyMaintenance 12546.917358398
scalar OsgEarthNet.uav[44] utilizationEnergyCharge 37089.868164062
scalar OsgEarthNet.uav[44] utilizationEnergyOverdrawMission 0
scalar OsgEarthNet.uav[44] utilizationEnergyOverdrawMaintenance 0
scalar OsgEarthNet.uav[44] utilizationCountMissions 8
scalar OsgEarthNet.uav[44] utilizationCountManeuversMission 89
scalar OsgEarthNet.uav[44] utilizationCountManeuversMaintenance 16
scalar OsgEarthNet.uav[44] utilizationCountChargeState 8
scalar OsgEarthNet.uav[44] utilizationCountOverdrawnAfterMission 0
scalar OsgEarthNet.uav[44] utilizationCountIdleState 8
scalar OsgEarthNet.uav[44] utilizationFail 0
scalar OsgEarthNet.uav[44] simulationTime 259200
scalar OsgEarthNet.uav[45] utilizationSecMission 7689.2783949093
scalar OsgEarthNet.uav[45] utilizationSecMaintenance 4294.6035369491
scalar OsgEarthNet.uav[45] utilizationSecCharge 44950
scalar OsgEarthNet.uav[45] utilizationSecIdle 202266.11706814
scalar OsgEarthNet.uav[45] utilizationEnergyMission 35828.028785706
scalar OsgEarthNet.uav[45] utilizationEnergyMaintenance 20729.118759155
scalar OsgEarthNet.uav[45] utilizationEnergyCharge 56557.138183594
scalar OsgEarthNet.uav[45] utilizationEnergyOverdrawMission 0
scalar OsgEarthNet.uav[45] utilizationEnergyOverdrawMaintenance 0
scalar OsgEarthNet.uav[45] utilizationCountMissions 12
scalar OsgEarthNet.uav[45] utilizationCountManeuversMission 126
scalar OsgEarthNet.uav[45] utilizationCountManeuversMaintenance 24
scalar OsgEarthNet.uav[45] utilizationCountChargeState 12
scalar OsgEarthNet.uav[45] utilizationCountOverdrawnAfterMission 0
scalar OsgEarthNet.uav[45] utilizationCountIdleState 11
scalar OsgEarthNet.uav[45] utilizationFail 0
scalar OsgEarthNet.uav[45] simulationTime 259200
scalar OsgEarthNet.uav[46] utilizationSecMission 6609.7742961098
scalar OsgEarthNet.uav[46] utilizationSecMaintenance 3519.2314462407
scalar OsgEarthNet.uav[46] utilizationSecCharge 37110
scalar OsgEarthNet.uav[46] utilizationSecIdle 211960.99325765
scalar OsgEarthNet.uav[46] utilizationEnergyMission 30743.753974915
scalar OsgEarthNet.uav[46] utilizationEnergyMaintenance 16456.844913483
scalar OsgEarthNet.uav[46] utilizationEnergyCharge 47200.600585938
scalar OsgEarthNet.uav[46] utilizationEnergyOverdrawMission 0
scalar OsgEarthNet.uav[46] utilizationEnergyOverdrawMaintenance 0
scalar OsgEarthNet.uav[46] utilizationCountMissions 10
scalar OsgEarthNet.uav[46] utilizationCountManeuversMission 107
scalar OsgEarthNet.uav[46] utilizationCountManeuversMaintenance 20
scalar OsgEarthNet.uav[46] utilizationCountChargeState 10
scalar OsgEarthNet.uav[46] utilizationCountOverdrawnAfterMission 0
scalar OsgEarthNet.uav[46] utilizationCountIdleState 10
scalar OsgEarthNet.uav[46] utilizationFail 0
scalar OsgEarthNet.uav[46] simulationTime 259200
scalar OsgEarthNet.uav[47] utilizationSecMission 8322.1054320433
scalar OsgEarthNet.uav[47] utilizationSecMaintenance 4657.2252993926
scalar OsgEarthNet.uav[47] utilizationSecCharge 48430
scalar OsgEarthNet.uav[47] utilizationSecIdle 197790.66826856
scalar OsgEarthNet.uav[47] utilizationEnergyMission 38237.214164734
scalar OsgEarthNet.uav[47] utilizationEnergyMaintenance 22767.285896301
scalar OsgEarthNet.uav[47] utilizationEnergyCharge 60993.59765625
scalar OsgEarthNet.uav[47] utilizationEnergyOverdrawMission 0
scalar OsgEarthNet.uav[47] utilizationEnergyOverdrawMaintenance 10.901936531067
scalar OsgEarthNet.uav[47] utilizationCountMissions 13
scalar OsgEarthNet.uav[47] utilizationCountManeuversMission 135
scalar OsgEarthNet.uav[47] utilizationCountManeuversMaintenance 26
scalar OsgEarthNet.uav[47] utilizationCountChargeState 13
scalar OsgEarthNet.uav[47] utilizationCountOverdrawnAfterMission 1
scalar OsgEarthNet.uav[47] utilizationCountIdleState 13
scalar OsgEarthNet.uav[47] utilizationFail 0
scalar OsgEarthNet.uav[47] simulationTime 259200
scalar OsgEarthNet.uav[48] utilizationSecMission 22385.27162293
scalar OsgEarthNet.uav[48] utilizationSecMaintenance 6675.1639672021
scalar OsgEarthNet.uav[48] utilizationSecCharge 102706.03807864
scalar OsgEarthNet.uav[48] utilizationSecIdle 127433.52533123
scalar OsgEarthNet.uav[48] utilizationEnergyMission 103245.19187927
scalar OsgEarthNet.uav[48] utilizationEnergyMaintenance 30903.811920166
scalar OsgEarthNet.uav[48] utilizationEnergyCharge 129443.33703613
scalar OsgEarthNet.uav[48] utilizationEnergyOverdrawMission 0
scalar OsgEarthNet.uav[48] utilizationEnergyOverdrawMaintenance 0
scalar OsgEarthNet.uav[48] utilizationCountMissions 28
scalar OsgEarthNet.uav[48] utilizationCountManeuversMission 381
scalar OsgEarthNet.uav[48] utilizationCountManeuversMaintenance 56
scalar OsgEarthNet.uav[48] utilizationCountChargeState 28
scalar OsgEarthNet.uav[48] utilizationCountOverdrawnAfterMission 0
scalar OsgEarthNet.uav[48] utilizationCountIdleState 28
scalar OsgEarthNet.uav[48] utilizationFail 0
scalar OsgEarthNet.uav[48] simulationTime 259200
scalar OsgEarthNet.uav[49] utilizationSecMission 12433.581406218
scalar OsgEarthNet.uav[49] utilizationSecMaintenance 4057.9189826445
scalar OsgEarthNet.uav[49] utilizationSecCharge 62760
scalar OsgEarthNet.uav[49] utilizationSecIdle 179948.49861114
scalar OsgEarthNet.uav[49] utilizationEnergyMission 58618.27620697
scalar OsgEarthNet.uav[49] utilizationEnergyMaintenance 19457.609825134
scalar OsgEarthNet.uav[49] utilizationEnergyCharge 77990.520996094
scalar OsgEarthNet.uav[49] utilizationEnergyOverdrawMission 0
scalar OsgEarthNet.uav[49] utilizationEnergyOverdrawMaintenance 0
scalar OsgEarthNet.uav[49] utilizationCountMissions 17
scalar OsgEarthNet.uav[49] utilizationCountManeuversMission 190
scalar OsgEarthNet.uav[49] utilizationCountManeuversMaintenance 34
scalar OsgEarthNet.uav[49] utilizationCountChargeState 17
scalar OsgEarthNet.uav[49] utilizationCountOverdrawnAfterMission 0
scalar OsgEarthNet.uav[49] utilizationCountIdleState 18
scalar OsgEarthNet.uav[49] utilizationFail 0
scalar OsgEarthNet.uav[49] simulationTime 259200
scalar OsgEarthNet.uav[50] utilizationSecMission 23444.232225656
scalar OsgEarthNet.uav[50] utilizationSecMaintenance 7072.6991534578
scalar OsgEarthNet.uav[50] utilizationSecCharge 113280
scalar OsgEarthNet.uav[50] utilizationSecIdle 115403.06762089
scalar OsgEarthNet.uav[50] utilizationEnergyMission 107216.44436469
scalar OsgEarthNet.uav[50] utilizationEnergyMaintenance 33931.307647705
scalar OsgEarthNet.uav[50] utilizationEnergyCharge 140737.48681641
scalar OsgEarthNet.uav[50] utilizationEnergyOverdrawMission 0
scalar OsgEarthNet.uav[50] utilizationEnergyOverdrawMaintenance 0
scalar OsgEarthNet.uav[50] utilizationCountMissions 31
scalar OsgEarthNet.uav[50] utilizationCountManeuversMission 359
scalar OsgEarthNet.uav[50] utilizationCountManeuversMaintenance 63
scalar OsgEarthNet.uav[50] utilizationCountChargeState 31
scalar OsgEarthNet.uav[50] utilizationCountOverdrawnAfterMission 0
scalar OsgEarthNet.uav[50] utilizationCountIdleState 31
scalar OsgEarthNet.uav[50] utilizationFail 0
scalar OsgEarthNet.uav[50] simulationTime 259200
scalar OsgEarthNet.uav[51] utilizationSecMission 3453.0734659014
scalar OsgEarthNet.uav[51] utilizationSecMaintenance 1586.6515321246
scalar OsgEarthNet.uav[51] utilizationSecCharge 15668.229867078
scalar OsgEarthNet.uav[51] utilizationSecIdle 238492.0441349
scalar OsgEarthNet.uav[51] utilizationEnergyMission 15573.64025116
scalar OsgEarthNet.uav[51] utilizationEnergyMaintenance 7996.7629470825
scalar OsgEarthNet.uav[51] utilizationEnergyCharge 19948.089782715
scalar OsgEarthNet.uav[51] utilizationEnergyOverdrawMission 0
scalar OsgEarthNet.uav[51] utilizationEnergyOverdrawMaintenance 0
scalar OsgEarthNet.uav[51] utilizationCountMissions 5
scalar OsgEarthNet.uav[51] utilizationCountManeuversMission 54
scalar OsgEarthNet.uav[51] utilizationCountManeuversMaintenance 10
scalar OsgEarthNet.uav[51] utilizationCountChargeState 5
scalar OsgEarthNet.uav[51] utilizationCountOverdrawnAfterMission 0
scalar OsgEarthNet.uav[51] utilizationCountIdleState 5
scalar OsgEarthNet.uav[51] utilizationFail 0
scalar OsgEarthNet.uav[51] simulationTime 259200
scalar OsgEarthNet.uav[52] utilizationSecMission 22860.662405818
scalar OsgEarthNet.uav[52] utilizationSecMaintenance 7677.4797819337
scalar OsgEarthNet.uav[52] utilizationSecCharge 111214.39307437
scalar OsgEarthNet.uav[52] utilizationSecIdle 117447.46373788
scalar OsgEarthNet.uav[52] utilizationEnergyMission 105081.736763
scalar OsgEarthNet.uav[52] utilizationEnergyMaintenance 35808.674030304
scalar OsgEarthNet.uav[52] utilizationEnergyCharge 140524.60693359
scalar OsgEarthNet.uav[52] utilizationEnergyOverdrawMission 0
scalar OsgEarthNet.uav[52] utilizationEnergyOverdrawMaintenance 0
scalar OsgEarthNet.uav[52] utilizationCountMissions 30
scalar OsgEarthNet.uav[52] utilizationCountManeuversMission 398
scalar OsgEarthNet.uav[52] utilizationCountManeuversMaintenance 60
scalar OsgEarthNet.uav[52] utilizationCountChargeState 30
scalar OsgEarthNet.uav[52] utilizationCountOverdrawnAfterMission 0
scalar OsgEarthNet.uav[52] utilizationCountIdleState 30
scalar OsgEarthNet.uav[52] utilizationFail 0
scalar OsgEarthNet.uav[52] simulationTime 259200
scalar OsgEarthNet.uav[53] utilizationSecMission 12499.312903758
scalar OsgEarthNet.uav[53] utilizationSecMaintenance 4167.3620685231
scalar OsgEarthNet.uav[53] utilizationSecCharge 63110
scalar OsgEarthNet.uav[53] utilizationSecIdle 179423.32402772
scalar OsgEarthNet.uav[53] utilizationEnergyMission 58883.214645386
scalar OsgEarthNet.uav[53] utilizationEnergyMaintenance 20073.353923798
scalar OsgEarthNet.uav[53] utilizationEnergyCharge 78595.383300781
scalar OsgEarthNet.uav[53] utilizationEnergyOverdrawMission 0
scalar OsgEarthNet.uav[53] utilizationEnergyOverdrawMaintenance 0
scalar OsgEarthNet.uav[53] utilizationCountMissions 17
scalar OsgEarthNet.uav[53] utilizationCountManeuversMission 190
scalar OsgEarthNet.uav[53] utilizationCountManeuversMaintenance 34
scalar OsgEarthNet.uav[53] utilizationCountChargeState 17
scalar OsgEarthNet.uav[53] utilizationCountOverdrawnAfterMission 0
scalar OsgEarthNet.uav[53] utilizationCountIdleState 18
scalar OsgEarthNet.uav[53] utilizationFail 0
scalar OsgEarthNet.uav[53] simulationTime 259200
scalar OsgEarthNet.uav[54] utilizationSecMission 6829.2006767055
scalar OsgEarthNet.uav[54] utilizationSecMaintenance 3995.4212406529
scalar OsgEarthNet.uav[54] utilizationSecCharge 40430
scalar OsgEarthNet.uav[54] utilizationSecIdle 207945.37708264
scalar OsgEarthNet.uav[54] utilizationEnergyMission 31394.791763306
scalar OsgEarthNet.uav[54] utilizationEnergyMaintenance 18902.187149048
scalar OsgEarthNet.uav[54] utilizationEnergyCharge 50296.979492188
scalar OsgEarthNet.uav[54] utilizationEnergyOverdrawMission 0
scalar OsgEarthNet.uav[54] utilizationEnergyOverdrawMaintenance 0
scalar OsgEarthNet.uav[54] utilizationCountMissions 11
scalar OsgEarthNet.uav[54] utilizationCountManeuversMission 109
scalar OsgEarthNet.uav[54] utilizationCountManeuversMaintenance 22
scalar OsgEarthNet.uav[54] utilizationCountChargeState 11
scalar OsgEarthNet.uav[54] utilizationCountOverdrawnAfterMission 0
scalar OsgEarthNet.uav[54] utilizationCountIdleState 12
scalar OsgEarthNet.uav[54] utilizationFail 0
scalar OsgEarthNet.uav[54] simulationTime 259200
scalar OsgEarthNet.uav[55] utilizationSecMission 22771.739609592
scalar OsgEarthNet.uav[55] utilizationSecMaintenance 7210.6539023514
scalar OsgEarthNet.uav[55] utilizationSecCharge 108517.23199703
scalar OsgEarthNet.uav[55] utilizationSecIdle 120700.37349103
scalar OsgEarthNet.uav[55] utilizationEnergyMission 105438.26930237
scalar OsgEarthNet.uav[55] utilizationEnergyMaintenance 33280.12297821
scalar OsgEarthNet.uav[55] utilizationEnergyCharge 137379.00048828
scalar OsgEarthNet.uav[55] utilizationEnergyOverdrawMission 0
scalar OsgEarthNet.uav[55] utilizationEnergyOverdrawMaintenance 0
scalar OsgEarthNet.uav[55] utilizationCountMissions 29
scalar OsgEarthNet.uav[55] utilizationCountManeuversMission 392
scalar OsgEarthNet.uav[55] utilizationCountManeuversMaintenance 58
scalar OsgEarthNet.uav[55] utilizationCountChargeState 29
scalar OsgEarthNet.uav[55] utilizationCountOverdrawnAfterMission 0
scalar OsgEarthNet.uav[55] utilizationCountIdleState 29
scalar OsgEarthNet.uav[55] utilizationFail 0
scalar OsgEarthNet.uav[55] simulationTime 259200
scalar OsgEarthNet.uav[56] utilizationSecMission 17201.598595791
scalar OsgEarthNet.uav[56] utilizationSecMaintenance 7639.2954798669
scalar OsgEarthNet.uav[56] utilizationSecCharge 92520
scalar OsgEarthNet.uav[56] utilizationSecIdle 141839.10492434
scalar OsgEarthNet.uav[56] utilizationEnergyMission 79852.483093262
scalar OsgEarthNet.uav[56] utilizationEnergyMaintenance 36646.134609222
scalar OsgEarthNet.uav[56] utilizationEnergyCharge 116498.61816406
scalar OsgEarthNet.uav[56] utilizationEnergyOverdrawMission 0
scalar OsgEarthNet.uav[56] utilizationEnergyOverdrawMaintenance 0
scalar OsgEarthNet.uav[56] utilizationCountMissions 25
scalar OsgEarthNet.uav[56] utilizationCountManeuversMission 281
scalar OsgEarthNet.uav[56] utilizationCountManeuversMaintenance 50
scalar OsgEarthNet.uav[56] utilizationCountChargeState 25
scalar OsgEarthNet.uav[56] utilizationCountOverdrawnAfterMission 0
scalar OsgEarthNet.uav[56] utilizationCountIdleState 24
scalar OsgEarthNet.uav[56] utilizationFail 0
scalar OsgEarthNet.uav[56] simulationTime 259200
scalar OsgEarthNet.uav[57] utilizationSecMission 15079.02340592
scalar OsgEarthNet.uav[57] utilizationSecMaintenance 5571.9942868918
scalar OsgEarthNet.uav[57] utilizationSecCharge 74360.062615995
scalar OsgEarthNet.uav[57] utilizationSecIdle 164188.91869119
scalar OsgEarthNet.uav[57] utilizationEnergyMission 70182.743560791
scalar OsgEarthNet.uav[57] utilizationEnergyMaintenance 26729.815547943
scalar OsgEarthNet.uav[57] utilizationEnergyCharge 93405.953613281
scalar OsgEarthNet.uav[57] utilizationEnergyOverdrawMission 0
scalar OsgEarthNet.uav[57] utilizationEnergyOverdrawMaintenance 0
scalar OsgEarthNet.uav[57] utilizationCountMissions 21
scalar OsgEarthNet.uav[57] utilizationCountManeuversMission 236
scalar OsgEarthNet.uav[57] utilizationCountManeuversMaintenance 42
scalar OsgEarthNet.uav[57] utilizationCountChargeState 21
scalar OsgEarthNet.uav[57] utilizationCountOverdrawnAfterMission 0
scalar OsgEarthNet.uav[57] utilizationCountIdleState 19
scalar OsgEarthNet.uav[57] utilizationFail 0
scalar OsgEarthNet.uav[57] simulationTime 259200
scalar OsgEarthNet.uav[58] utilizationSecMission 22763.933784197
scalar OsgEarthNet.uav[58] utilizationSecMaintenance 8190.1443019809
scalar OsgEarthNet.uav[58] utilizationSecCharge 114180
scalar OsgEarthNet.uav[58] utilizationSecIdle 114065.92091382
scalar OsgEarthNet.uav[58] utilizationEnergyMission 105580.95789719
scalar OsgEarthNet.uav[58] utilizationEnergyMaintenance 38780.997699738
scalar OsgEarthNet.uav[58] utilizationEnergyCharge 144036.62597656
scalar OsgEarthNet.uav[58] utilizationEnergyOverdrawMission 0
scalar OsgEarthNet.uav[58] utilizationEnergyOverdrawMaintenance 0
scalar OsgEarthNet.uav[58] utilizationCountMissions 30
scalar OsgEarthNet.uav[58] utilizationCountManeuversMission 401
scalar OsgEarthNet.uav[58] utilizationCountManeuversMaintenance 60
scalar OsgEarthNet.uav[58] utilizationCountChargeState 30
scalar OsgEarthNet.uav[58] utilizationCountOverdrawnAfterMission 0
scalar OsgEarthNet.uav[58] utilizationCountIdleState 31
scalar OsgEarthNet.uav[58] utilizationFail 0
scalar OsgEarthNet.uav[58] simulationTime 259200
scalar OsgEarthNet.uav[59] utilizationSecMission 28899.054091308
scalar OsgEarthNet.uav[59] utilizationSecMaintenance 8870.0020581043
scalar OsgEarthNet.uav[59] utilizationSecCharge 138129.42918964
scalar OsgEarthNet.uav[59] utilizationSecIdle 83301.51366095
scalar OsgEarthNet.uav[59] utilizationEnergyMission 132998.03530121
scalar OsgEarthNet.uav[59] utilizationEnergyMaintenance 43185.445941925
scalar OsgEarthNet.uav[59] utilizationEnergyCharge 172686.09106445
scalar OsgEarthNet.uav[59] utilizationEnergyOverdrawMission 0
scalar OsgEarthNet.uav[59] utilizationEnergyOverdrawMaintenance 0
scalar OsgEarthNet.uav[59] utilizationCountMissions 38
scalar OsgEarthNet.uav[59] utilizationCountManeuversMission 441
scalar OsgEarthNet.uav[59] utilizationCountManeuversMaintenance 76
scalar OsgEarthNet.uav[59] utilizationCountChargeState 38
scalar OsgEarthNet.uav[59] utilizationCountOverdrawnAfterMission 0
scalar OsgEarthNet.uav[59] utilizationCountIdleState 38
scalar OsgEarthNet.uav[59] utilizationFail 0
scalar OsgEarthNet.uav[59] simulationTime 259200
scalar OsgEarthNet.uav[60] utilizationSecMission 12934.505106459
scalar OsgEarthNet.uav[60] utilizationSecMaintenance 4841.5559603675
scalar OsgEarthNet.uav[60] utilizationSecCharge 66530
scalar OsgEarthNet.uav[60] utilizationSecIdle 174893.93793317
scalar OsgEarthNet.uav[60] utilizationEnergyMission 59410.751960754
scalar OsgEarthNet.uav[60] utilizationEnergyMaintenance 23595.601474762
scalar OsgEarthNet.uav[60] utilizationEnergyCharge 82720.078125
scalar OsgEarthNet.uav[60] utilizationEnergyOverdrawMission 0
scalar OsgEarthNet.uav[60] utilizationEnergyOverdrawMaintenance 0
scalar OsgEarthNet.uav[60] utilizationCountMissions 18
scalar OsgEarthNet.uav[60] utilizationCountManeuversMission 203
scalar OsgEarthNet.uav[60] utilizationCountManeuversMaintenance 36
scalar OsgEarthNet.uav[60] utilizationCountChargeState 18
scalar OsgEarthNet.uav[60] utilizationCountOverdrawnAfterMission 0
scalar OsgEarthNet.uav[60] utilizationCountIdleState 19
scalar OsgEarthNet.uav[60] utilizationFail 0
scalar OsgEarthNet.uav[60] simulationTime 259200
scalar OsgEarthNet.uav[61] utilizationSecMission 6404.1923656466
scalar OsgEarthNet.uav[61] utilizationSecMaintenance 3698.1652459115
scalar OsgEarthNet.uav[61] utilizationSecCharge 37560
scalar OsgEarthNet.uav[61] utilizationSecIdle 211537.64138844
scalar OsgEarthNet.uav[61] utilizationEnergyMission 29731.091133118
scalar OsgEarthNet.uav[61] utilizationEnergyMaintenance 17336.32126236
scalar OsgEarthNet.uav[61] utilizationEnergyCharge 47067.404296875
scalar OsgEarthNet.uav[61] utilizationEnergyOverdrawMission 0
scalar OsgEarthNet.uav[61] utilizationEnergyOverdrawMaintenance 0
scalar OsgEarthNet.uav[61] utilizationCountMissions 10
scalar OsgEarthNet.uav[61] utilizationCountManeuversMission 108
scalar OsgEarthNet.uav[61] utilizationCountManeuversMaintenance 20
scalar OsgEarthNet.uav[61] utilizationCountChargeState 10
scalar OsgEarthNet.uav[61] utilizationCountOverdrawnAfterMission 0
scalar OsgEarthNet.uav[61] utilizationCountIdleState 11
scalar OsgEarthNet.uav[61] utilizationFail 0
scalar OsgEarthNet.uav[61] simulationTime 259200
scalar OsgEarthNet.uav[62] utilizationSecMission 20759.783230454
scalar OsgEarthNet.uav[62] utilizationSecMaintenance 7032.7593626714
scalar OsgEarthNet.uav[62] utilizationSecCharge 99218.729486013
scalar OsgEarthNet.uav[62] utilizationSecIdle 132188.72692086
scalar OsgEarthNet.uav[62] utilizationEnergyMission 96331.1847229
scalar OsgEarthNet.uav[62] utilizationEnergyMaintenance 31644.56496048
scalar OsgEarthNet.uav[62] utilizationEnergyCharge 125360.97631836
scalar OsgEarthNet.uav[62] utilizationEnergyOverdrawMission 0
scalar OsgEarthNet.uav[62] utilizationEnergyOverdrawMaintenance 0
scalar OsgEarthNet.uav[62] utilizationCountMissions 27
scalar OsgEarthNet.uav[62] utilizationCountManeuversMission 361
scalar OsgEarthNet.uav[62] utilizationCountManeuversMaintenance 54
scalar OsgEarthNet.uav[62] utilizationCountChargeState 27
scalar OsgEarthNet.uav[62] utilizationCountOverdrawnAfterMission 0
scalar OsgEarthNet.uav[62] utilizationCountIdleState 27
scalar OsgEarthNet.uav[62] utilizationFail 0
scalar OsgEarthNet.uav[62] simulationTime 259200
scalar OsgEarthNet.uav[63] utilizationSecMission 17729.517116691
scalar OsgEarthNet.uav[63] utilizationSecMaintenance 7459.6742349953
scalar OsgEarthNet.uav[63] utilizationSecCharge 92580
scalar OsgEarthNet.uav[63] utilizationSecIdle 141430.80764831
scalar OsgEarthNet.uav[63] utilizationEnergyMission 81749.830505371
scalar OsgEarthNet.uav[63] utilizationEnergyMaintenance 35320.937797546
scalar OsgEarthNet.uav[63] utilizationEnergyCharge 117070.76220703
scalar OsgEarthNet.uav[63] utilizationEnergyOverdrawMission 0
scalar OsgEarthNet.uav[63] utilizationEnergyOverdrawMaintenance 0
scalar OsgEarthNet.uav[63] utilizationCountMissions 25
scalar OsgEarthNet.uav[63] utilizationCountManeuversMission 289
scalar OsgEarthNet.uav[63] utilizationCountManeuversMaintenance 50
scalar OsgEarthNet.uav[63] utilizationCountChargeState 25
scalar OsgEarthNet.uav[63] utilizationCountOverdrawnAfterMission 0
scalar OsgEarthNet.uav[63] utilizationCountIdleState 22
scalar OsgEarthNet.uav[63] utilizationFail 0
scalar OsgEarthNet.uav[63] simulationTime 259200
scalar OsgEarthNet.uav[64] utilizationSecMission 8756.9275120538
scalar OsgEarthNet.uav[64] utilizationSecMaintenance 3959.0319091852
scalar OsgEarthNet.uav[64] utilizationSecCharge 47960
scalar OsgEarthNet.uav[64] utilizationSecIdle 198524.03957876
scalar OsgEarthNet.uav[64] utilizationEnergyMission 41325.045852661
scalar OsgEarthNet.uav[64] utilizationEnergyMaintenance 19088.341060638
scalar OsgEarthNet.uav[64] utilizationEnergyCharge 60413.38671875
scalar OsgEarthNet.uav[64] utilizationEnergyOverdrawMission 0
scalar OsgEarthNet.uav[64] utilizationEnergyOverdrawMaintenance 0
scalar OsgEarthNet.uav[64] utilizationCountMissions 13
scalar OsgEarthNet.uav[64] utilizationCountManeuversMission 143
scalar OsgEarthNet.uav[64] utilizationCountManeuversMaintenance 25
scalar OsgEarthNet.uav[64] utilizationCountChargeState 13
scalar OsgEarthNet.uav[64] utilizationCountOverdrawnAfterMission 0
scalar OsgEarthNet.uav[64] utilizationCountIdleState 11
scalar OsgEarthNet.uav[64] utilizationFail 0
scalar OsgEarthNet.uav[64] simulationTime 259200
scalar OsgEarthNet.uav[65] utilizationSecMission 21277.934149605
[...]
scalar OsgEarthNet.uav[82] utilizationSecIdle 109368.78254822
scalar OsgEarthNet.uav[82] utilizationEnergyMission 112904.63712692
scalar OsgEarthNet.uav[82] utilizationEnergyMaintenance 35934.800449371
scalar OsgEarthNet.uav[82] utilizationEnergyCharge 148223.43261719
scalar OsgEarthNet.uav[82] utilizationEnergyOverdrawMission 0
scalar OsgEarthNet.uav[82] utilizationEnergyOverdrawMaintenance 0
scalar OsgEarthNet.uav[82] utilizationCountMissions 31
scalar OsgEarthNet.uav[82] utilizationCountManeuversMission 417
scalar OsgEarthNet.uav[82] utilizationCountManeuversMaintenance 62
scalar OsgEarthNet.uav[82] utilizationCountChargeState 31
scalar OsgEarthNet.uav[82] utilizationCountOverdrawnAfterMission 0
scalar OsgEarthNet.uav[82] utilizationCountIdleState 32
scalar OsgEarthNet.uav[82] utilizationFail 0
scalar OsgEarthNet.uav[82] simulationTime 259200
scalar OsgEarthNet.uav[83] utilizationSecMission 7134.1885123283
scalar OsgEarthNet.uav[83] utilizationSecMaintenance 2903.4676864219
scalar OsgEarthNet.uav[83] utilizationSecCharge 37550
scalar OsgEarthNet.uav[83] utilizationSecIdle 211612.34280125
scalar OsgEarthNet.uav[83] utilizationEnergyMission 33318.777297974
scalar OsgEarthNet.uav[83] utilizationEnergyMaintenance 13781.643943787
scalar OsgEarthNet.uav[83] utilizationEnergyCharge 47100.432128906
scalar OsgEarthNet.uav[83] utilizationEnergyOverdrawMission 0
scalar OsgEarthNet.uav[83] utilizationEnergyOverdrawMaintenance 0
scalar OsgEarthNet.uav[83] utilizationCountMissions 10
scalar OsgEarthNet.uav[83] utilizationCountManeuversMission 109
scalar OsgEarthNet.uav[83] utilizationCountManeuversMaintenance 20
scalar OsgEarthNet.uav[83] utilizationCountChargeState 10
scalar OsgEarthNet.uav[83] utilizationCountOverdrawnAfterMission 0
scalar OsgEarthNet.uav[83] utilizationCountIdleState 11
scalar OsgEarthNet.uav[83] utilizationFail 0
scalar OsgEarthNet.uav[83] simulationTime 259200
scalar OsgEarthNet.uav[84] utilizationSecMission 5513.5593234285
scalar OsgEarthNet.uav[84] utilizationSecMaintenance 2662.2076827064
scalar OsgEarthNet.uav[84] utilizationSecCharge 29790
scalar OsgEarthNet.uav[84] utilizationSecIdle 221234.23199387
scalar OsgEarthNet.uav[84] utilizationEnergyMission 25112.202392578
scalar OsgEarthNet.uav[84] utilizationEnergyMaintenance 12835.720184326
scalar OsgEarthNet.uav[84] utilizationEnergyCharge 37947.920410156
scalar OsgEarthNet.uav[84] utilizationEnergyOverdrawMission 0
scalar OsgEarthNet.uav[84] utilizationEnergyOverdrawMaintenance 0
scalar OsgEarthNet.uav[84] utilizationCountMissions 8
scalar OsgEarthNet.uav[84] utilizationCountManeuversMission 91
scalar OsgEarthNet.uav[84] utilizationCountManeuversMaintenance 16
scalar OsgEarthNet.uav[84] utilizationCountChargeState 8
scalar OsgEarthNet.uav[84] utilizationCountOverdrawnAfterMission 0
scalar OsgEarthNet.uav[84] utilizationCountIdleState 8
scalar OsgEarthNet.uav[84] utilizationFail 0
scalar OsgEarthNet.uav[84] simulationTime 259200
scalar OsgEarthNet.uav[85] utilizationSecMission 25445.42074197
scalar OsgEarthNet.uav[85] utilizationSecMaintenance 7750.1893854148
scalar OsgEarthNet.uav[85] utilizationSecCharge 121360
scalar OsgEarthNet.uav[85] utilizationSecIdle 104644.38887262
scalar OsgEarthNet.uav[85] utilizationEnergyMission 118563.75536346
scalar OsgEarthNet.uav[85] utilizationEnergyMaintenance 34997.493789673
scalar OsgEarthNet.uav[85] utilizationEnergyCharge 152749.16650391
scalar OsgEarthNet.uav[85] utilizationEnergyOverdrawMission 0
scalar OsgEarthNet.uav[85] utilizationEnergyOverdrawMaintenance 0
scalar OsgEarthNet.uav[85] utilizationCountMissions 32
scalar OsgEarthNet.uav[85] utilizationCountManeuversMission 435
scalar OsgEarthNet.uav[85] utilizationCountManeuversMaintenance 64
scalar OsgEarthNet.uav[85] utilizationCountChargeState 32
scalar OsgEarthNet.uav[85] utilizationCountOverdrawnAfterMission 0
scalar OsgEarthNet.uav[85] utilizationCountIdleState 33
scalar OsgEarthNet.uav[85] utilizationFail 0
scalar OsgEarthNet.uav[85] simulationTime 259200
scalar OsgEarthNet.uav[86] utilizationSecMission 8467.92591532
scalar OsgEarthNet.uav[86] utilizationSecMaintenance 4425.4341383129
scalar OsgEarthNet.uav[86] utilizationSecCharge 47620
scalar OsgEarthNet.uav[86] utilizationSecIdle 198686.63894637
scalar OsgEarthNet.uav[86] utilizationEnergyMission 38442.038444519
scalar OsgEarthNet.uav[86] utilizationEnergyMaintenance 21045.115688324
scalar OsgEarthNet.uav[86] utilizationEnergyCharge 59487.15234375
scalar OsgEarthNet.uav[86] utilizationEnergyOverdrawMission 0
scalar OsgEarthNet.uav[86] utilizationEnergyOverdrawMaintenance 0
scalar OsgEarthNet.uav[86] utilizationCountMissions 13
scalar OsgEarthNet.uav[86] utilizationCountManeuversMission 140
scalar OsgEarthNet.uav[86] utilizationCountManeuversMaintenance 26
scalar OsgEarthNet.uav[86] utilizationCountChargeState 13
scalar OsgEarthNet.uav[86] utilizationCountOverdrawnAfterMission 0
scalar OsgEarthNet.uav[86] utilizationCountIdleState 12
scalar OsgEarthNet.uav[86] utilizationFail 0
scalar OsgEarthNet.uav[86] simulationTime 259200
scalar OsgEarthNet.uav[87] utilizationSecMission 9725.7586396116
scalar OsgEarthNet.uav[87] utilizationSecMaintenance 5215.3776755544
scalar OsgEarthNet.uav[87] utilizationSecCharge 56130
scalar OsgEarthNet.uav[87] utilizationSecIdle 188128.86268483
scalar OsgEarthNet.uav[87] utilizationEnergyMission 45528.970413208
scalar OsgEarthNet.uav[87] utilizationEnergyMaintenance 25122.643299103
scalar OsgEarthNet.uav[87] utilizationEnergyCharge 70651.615234375
scalar OsgEarthNet.uav[87] utilizationEnergyOverdrawMission 0
scalar OsgEarthNet.uav[87] utilizationEnergyOverdrawMaintenance 0
scalar OsgEarthNet.uav[87] utilizationCountMissions 15
scalar OsgEarthNet.uav[87] utilizationCountManeuversMission 165
scalar OsgEarthNet.uav[87] utilizationCountManeuversMaintenance 30
scalar OsgEarthNet.uav[87] utilizationCountChargeState 15
scalar OsgEarthNet.uav[87] utilizationCountOverdrawnAfterMission 0
scalar OsgEarthNet.uav[87] utilizationCountIdleState 14
scalar OsgEarthNet.uav[87] utilizationFail 0
scalar OsgEarthNet.uav[87] simulationTime 259200
scalar OsgEarthNet.uav[88] utilizationSecMission 22662.595067837
scalar OsgEarthNet.uav[88] utilizationSecMaintenance 7601.3769108732
scalar OsgEarthNet.uav[88] utilizationSecCharge 109850
scalar OsgEarthNet.uav[88] utilizationSecIdle 119086.02702129
scalar OsgEarthNet.uav[88] utilizationEnergyMission 103572.65825653
scalar OsgEarthNet.uav[88] utilizationEnergyMaintenance 35145.887020111
scalar OsgEarthNet.uav[88] utilizationEnergyCharge 138375.29003906
scalar OsgEarthNet.uav[88] utilizationEnergyOverdrawMission 0
scalar OsgEarthNet.uav[88] utilizationEnergyOverdrawMaintenance 0
scalar OsgEarthNet.uav[88] utilizationCountMissions 29
scalar OsgEarthNet.uav[88] utilizationCountManeuversMission 392
scalar OsgEarthNet.uav[88] utilizationCountManeuversMaintenance 58
scalar OsgEarthNet.uav[88] utilizationCountChargeState 29
scalar OsgEarthNet.uav[88] utilizationCountOverdrawnAfterMission 0
scalar OsgEarthNet.uav[88] utilizationCountIdleState 30
scalar OsgEarthNet.uav[88] utilizationFail 0
scalar OsgEarthNet.uav[88] simulationTime 259200
scalar OsgEarthNet.uav[89] utilizationSecMission 20080.13069455
scalar OsgEarthNet.uav[89] utilizationSecMaintenance 7634.7094222759
scalar OsgEarthNet.uav[89] utilizationSecCharge 100075.80491954
scalar OsgEarthNet.uav[89] utilizationSecIdle 131409.35396364
scalar OsgEarthNet.uav[89] utilizationEnergyMission 92388.690933228
scalar OsgEarthNet.uav[89] utilizationEnergyMaintenance 36651.020004272
scalar OsgEarthNet.uav[89] utilizationEnergyCharge 125847.97192383
scalar OsgEarthNet.uav[89] utilizationEnergyOverdrawMission 0
scalar OsgEarthNet.uav[89] utilizationEnergyOverdrawMaintenance 0
scalar OsgEarthNet.uav[89] utilizationCountMissions 28
scalar OsgEarthNet.uav[89] utilizationCountManeuversMission 316
scalar OsgEarthNet.uav[89] utilizationCountManeuversMaintenance 56
scalar OsgEarthNet.uav[89] utilizationCountChargeState 28
scalar OsgEarthNet.uav[89] utilizationCountOverdrawnAfterMission 0
scalar OsgEarthNet.uav[89] utilizationCountIdleState 24
scalar OsgEarthNet.uav[89] utilizationFail 0
scalar OsgEarthNet.uav[89] simulationTime 259200
scalar OsgEarthNet.uav[90] utilizationSecMission 8105.719031052
scalar OsgEarthNet.uav[90] utilizationSecMaintenance 3875.5279899135
scalar OsgEarthNet.uav[90] utilizationSecCharge 45400
scalar OsgEarthNet.uav[90] utilizationSecIdle 201818.75197903
scalar OsgEarthNet.uav[90] utilizationEnergyMission 38042.022064209
scalar OsgEarthNet.uav[90] utilizationEnergyMaintenance 18882.879390717
scalar OsgEarthNet.uav[90] utilizationEnergyCharge 56924.901855469
scalar OsgEarthNet.uav[90] utilizationEnergyOverdrawMission 0
scalar OsgEarthNet.uav[90] utilizationEnergyOverdrawMaintenance 0
scalar OsgEarthNet.uav[90] utilizationCountMissions 12
scalar OsgEarthNet.uav[90] utilizationCountManeuversMission 133
scalar OsgEarthNet.uav[90] utilizationCountManeuversMaintenance 24
scalar OsgEarthNet.uav[90] utilizationCountChargeState 12
scalar OsgEarthNet.uav[90] utilizationCountOverdrawnAfterMission 0
scalar OsgEarthNet.uav[90] utilizationCountIdleState 13
scalar OsgEarthNet.uav[90] utilizationFail 0
scalar OsgEarthNet.uav[90] simulationTime 259200
scalar OsgEarthNet.uav[91] utilizationSecMission 3442.4992042901
scalar OsgEarthNet.uav[91] utilizationSecMaintenance 1699.7234357566
scalar OsgEarthNet.uav[91] utilizationSecCharge 19160
scalar OsgEarthNet.uav[91] utilizationSecIdle 234897.77635995
scalar OsgEarthNet.uav[91] utilizationEnergyMission 15924.175559998
scalar OsgEarthNet.uav[91] utilizationEnergyMaintenance 8249.5297317505
scalar OsgEarthNet.uav[91] utilizationEnergyCharge 24173.702148438
scalar OsgEarthNet.uav[91] utilizationEnergyOverdrawMission 0
scalar OsgEarthNet.uav[91] utilizationEnergyOverdrawMaintenance 0
scalar OsgEarthNet.uav[91] utilizationCountMissions 5
scalar OsgEarthNet.uav[91] utilizationCountManeuversMission 57
scalar OsgEarthNet.uav[91] utilizationCountManeuversMaintenance 10
scalar OsgEarthNet.uav[91] utilizationCountChargeState 5
scalar OsgEarthNet.uav[91] utilizationCountOverdrawnAfterMission 0
scalar OsgEarthNet.uav[91] utilizationCountIdleState 6
scalar OsgEarthNet.uav[91] utilizationFail 0
scalar OsgEarthNet.uav[91] simulationTime 259200
scalar OsgEarthNet.uav[92] utilizationSecMission 23150.278611319
scalar OsgEarthNet.uav[92] utilizationSecMaintenance 7888.1898405766
scalar OsgEarthNet.uav[92] utilizationSecCharge 113720
scalar OsgEarthNet.uav[92] utilizationSecIdle 114441.5305481
scalar OsgEarthNet.uav[92] utilizationEnergyMission 106958.16931915
scalar OsgEarthNet.uav[92] utilizationEnergyMaintenance 36414.803993225
scalar OsgEarthNet.uav[92] utilizationEnergyCharge 143134.48828125
scalar OsgEarthNet.uav[92] utilizationEnergyOverdrawMission 0
scalar OsgEarthNet.uav[92] utilizationEnergyOverdrawMaintenance 0
scalar OsgEarthNet.uav[92] utilizationCountMissions 30
scalar OsgEarthNet.uav[92] utilizationCountManeuversMission 403
scalar OsgEarthNet.uav[92] utilizationCountManeuversMaintenance 60
scalar OsgEarthNet.uav[92] utilizationCountChargeState 30
scalar OsgEarthNet.uav[92] utilizationCountOverdrawnAfterMission 0
scalar OsgEarthNet.uav[92] utilizationCountIdleState 31
scalar OsgEarthNet.uav[92] utilizationFail 0
scalar OsgEarthNet.uav[92] simulationTime 259200
scalar OsgEarthNet.uav[93] utilizationSecMission 15865.400245783
scalar OsgEarthNet.uav[93] utilizationSecMaintenance 5791.7695116461
scalar OsgEarthNet.uav[93] utilizationSecCharge 81740
scalar OsgEarthNet.uav[93] utilizationSecIdle 155802.82924257
scalar OsgEarthNet.uav[93] utilizationEnergyMission 74597.423095703
scalar OsgEarthNet.uav[93] utilizationEnergyMaintenance 27358.270740509
scalar OsgEarthNet.uav[93] utilizationEnergyCharge 101931.90332031
scalar OsgEarthNet.uav[93] utilizationEnergyOverdrawMission 0
scalar OsgEarthNet.uav[93] utilizationEnergyOverdrawMaintenance 0
scalar OsgEarthNet.uav[93] utilizationCountMissions 22
scalar OsgEarthNet.uav[93] utilizationCountManeuversMission 243
scalar OsgEarthNet.uav[93] utilizationCountManeuversMaintenance 44
scalar OsgEarthNet.uav[93] utilizationCountChargeState 22
scalar OsgEarthNet.uav[93] utilizationCountOverdrawnAfterMission 0
scalar OsgEarthNet.uav[93] utilizationCountIdleState 23
scalar OsgEarthNet.uav[93] utilizationFail 0
scalar OsgEarthNet.uav[93] simulationTime 259200
scalar OsgEarthNet.uav[94] utilizationSecMission 1152.6496504474
scalar OsgEarthNet.uav[94] utilizationSecMaintenance 843.19963463359
scalar OsgEarthNet.uav[94] utilizationSecCharge 7660
scalar OsgEarthNet.uav[94] utilizationSecIdle 249544.14971492
scalar OsgEarthNet.uav[94] utilizationEnergyMission 5655.6911773682
scalar OsgEarthNet.uav[94] utilizationEnergyMaintenance 4002.061252594
scalar OsgEarthNet.uav[94] utilizationEnergyCharge 9657.755859375
scalar OsgEarthNet.uav[94] utilizationEnergyOverdrawMission 0
scalar OsgEarthNet.uav[94] utilizationEnergyOverdrawMaintenance 0
scalar OsgEarthNet.uav[94] utilizationCountMissions 2
scalar OsgEarthNet.uav[94] utilizationCountManeuversMission 19
scalar OsgEarthNet.uav[94] utilizationCountManeuversMaintenance 4
scalar OsgEarthNet.uav[94] utilizationCountChargeState 2
scalar OsgEarthNet.uav[94] utilizationCountOverdrawnAfterMission 0
scalar OsgEarthNet.uav[94] utilizationCountIdleState 3
scalar OsgEarthNet.uav[94] utilizationFail 0
scalar OsgEarthNet.uav[94] simulationTime 259200
scalar OsgEarthNet.uav[95] utilizationSecMission 11967.861453268
scalar OsgEarthNet.uav[95] utilizationSecMaintenance 3953.1141849508
scalar OsgEarthNet.uav[95] utilizationSecCharge 59580
scalar OsgEarthNet.uav[95] utilizationSecIdle 183699.02336178
scalar OsgEarthNet.uav[95] utilizationEnergyMission 55336.020805359
scalar OsgEarthNet.uav[95] utilizationEnergyMaintenance 19102.536834717
scalar OsgEarthNet.uav[95] utilizationEnergyCharge 74464.443847656
scalar OsgEarthNet.uav[95] utilizationEnergyOverdrawMission 0
scalar OsgEarthNet.uav[95] utilizationEnergyOverdrawMaintenance 0
scalar OsgEarthNet.uav[95] utilizationCountMissions 16
scalar OsgEarthNet.uav[95] utilizationCountManeuversMission 185
scalar OsgEarthNet.uav[95] utilizationCountManeuversMaintenance 32
scalar OsgEarthNet.uav[95] utilizationCountChargeState 16
scalar OsgEarthNet.uav[95] utilizationCountOverdrawnAfterMission 0
scalar OsgEarthNet.uav[95] utilizationCountIdleState 17
scalar OsgEarthNet.uav[95] utilizationFail 0
scalar OsgEarthNet.uav[95] simulationTime 259200
scalar OsgEarthNet.uav[96] utilizationSecMission 20170.960857729
scalar OsgEarthNet.uav[96] utilizationSecMaintenance 6318.5180146293
scalar OsgEarthNet.uav[96] utilizationSecCharge 100080
scalar OsgEarthNet.uav[96] utilizationSecIdle 132630.52012764
scalar OsgEarthNet.uav[96] utilizationEnergyMission 94717.025985718
scalar OsgEarthNet.uav[96] utilizationEnergyMaintenance 30074.567264557
scalar OsgEarthNet.uav[96] utilizationEnergyCharge 124705.89013672
scalar OsgEarthNet.uav[96] utilizationEnergyOverdrawMission 0
scalar OsgEarthNet.uav[96] utilizationEnergyOverdrawMaintenance 0
scalar OsgEarthNet.uav[96] utilizationCountMissions 27
scalar OsgEarthNet.uav[96] utilizationCountManeuversMission 305
scalar OsgEarthNet.uav[96] utilizationCountManeuversMaintenance 54
scalar OsgEarthNet.uav[96] utilizationCountChargeState 27
scalar OsgEarthNet.uav[96] utilizationCountOverdrawnAfterMission 0
scalar OsgEarthNet.uav[96] utilizationCountIdleState 28
scalar OsgEarthNet.uav[96] utilizationFail 0
scalar OsgEarthNet.uav[96] simulationTime 259200
scalar OsgEarthNet.uav[97] utilizationSecMission 5849.2546228968
scalar OsgEarthNet.uav[97] utilizationSecMaintenance 3097.9704854319
scalar OsgEarthNet.uav[97] utilizationSecCharge 32132.970784605
scalar OsgEarthNet.uav[97] utilizationSecIdle 218119.80310707
scalar OsgEarthNet.uav[97] utilizationEnergyMission 27388.193664551
scalar OsgEarthNet.uav[97] utilizationEnergyMaintenance 14854.245464325
scalar OsgEarthNet.uav[97] utilizationEnergyCharge 41704.245849609
scalar OsgEarthNet.uav[97] utilizationEnergyOverdrawMission 0
scalar OsgEarthNet.uav[97] utilizationEnergyOverdrawMaintenance 0
scalar OsgEarthNet.uav[97] utilizationCountMissions 9
scalar OsgEarthNet.uav[97] utilizationCountManeuversMission 95
scalar OsgEarthNet.uav[97] utilizationCountManeuversMaintenance 18
scalar OsgEarthNet.uav[97] utilizationCountChargeState 9
scalar OsgEarthNet.uav[97] utilizationCountOverdrawnAfterMission 0
scalar OsgEarthNet.uav[97] utilizationCountIdleState 8
scalar OsgEarthNet.uav[97] utilizationFail 0
scalar OsgEarthNet.uav[97] simulationTime 259200
scalar OsgEarthNet.uav[98] utilizationSecMission 22354.804247261
scalar OsgEarthNet.uav[98] utilizationSecMaintenance 7596.8526439378
scalar OsgEarthNet.uav[98] utilizationSecCharge 109280
scalar OsgEarthNet.uav[98] utilizationSecIdle 119968.3421088
scalar OsgEarthNet.uav[98] utilizationEnergyMission 102110.88794708
scalar OsgEarthNet.uav[98] utilizationEnergyMaintenance 35305.560386658
scalar OsgEarthNet.uav[98] utilizationEnergyCharge 137275.70458984
scalar OsgEarthNet.uav[98] utilizationEnergyOverdrawMission 0
scalar OsgEarthNet.uav[98] utilizationEnergyOverdrawMaintenance 0
scalar OsgEarthNet.uav[98] utilizationCountMissions 29
scalar OsgEarthNet.uav[98] utilizationCountManeuversMission 388
scalar OsgEarthNet.uav[98] utilizationCountManeuversMaintenance 58
scalar OsgEarthNet.uav[98] utilizationCountChargeState 29
scalar OsgEarthNet.uav[98] utilizationCountOverdrawnAfterMission 0
scalar OsgEarthNet.uav[98] utilizationCountIdleState 30
scalar OsgEarthNet.uav[98] utilizationFail 0
scalar OsgEarthNet.uav[98] simulationTime 259200
scalar OsgEarthNet.uav[99] utilizationSecMission 8398.9917233894
scalar OsgEarthNet.uav[99] utilizationSecMaintenance 3710.1232255163
scalar OsgEarthNet.uav[99] utilizationSecCharge 45190
scalar OsgEarthNet.uav[99] utilizationSecIdle 201900.88405109
scalar OsgEarthNet.uav[99] utilizationEnergyMission 38640.485458374
scalar OsgEarthNet.uav[99] utilizationEnergyMaintenance 18039.118953705
scalar OsgEarthNet.uav[99] utilizationEnergyCharge 56679.587402344
scalar OsgEarthNet.uav[99] utilizationEnergyOverdrawMission 0
scalar OsgEarthNet.uav[99] utilizationEnergyOverdrawMaintenance 0
scalar OsgEarthNet.uav[99] utilizationCountMissions 12
scalar OsgEarthNet.uav[99] utilizationCountManeuversMission 130
scalar OsgEarthNet.uav[99] utilizationCountManeuversMaintenance 24
scalar OsgEarthNet.uav[99] utilizationCountChargeState 12
scalar OsgEarthNet.uav[99] utilizationCountOverdrawnAfterMission 0
scalar OsgEarthNet.uav[99] utilizationCountIdleState 13
scalar OsgEarthNet.uav[99] utilizationFail 0
scalar OsgEarthNet.uav[99] simulationTime 259200
scalar OsgEarthNet.cs[0] usedPower 4885.2329523006
scalar OsgEarthNet.cs[0] chargedPower 4885.2329523006
scalar OsgEarthNet.cs[0] chargedMobileNodes 1
scalar OsgEarthNet.cs[0] reservations 1
scalar OsgEarthNet.cs[1] usedPower 947910.92846681
scalar OsgEarthNet.cs[1] chargedPower 947910.92846681
scalar OsgEarthNet.cs[1] chargedMobileNodes 200
scalar OsgEarthNet.cs[1] reservations 204
scalar OsgEarthNet.cs[2] usedPower 3122757.0097349
scalar OsgEarthNet.cs[2] chargedPower 3122757.0097349
scalar OsgEarthNet.cs[2] chargedMobileNodes 651
scalar OsgEarthNet.cs[2] reservations 660
scalar OsgEarthNet.cs[3] usedPower 0
scalar OsgEarthNet.cs[3] chargedPower 0
scalar OsgEarthNet.cs[3] chargedMobileNodes 0
scalar OsgEarthNet.cs[3] reservations 0
scalar OsgEarthNet.cs[4] usedPower 639621.8347222
scalar OsgEarthNet.cs[4] chargedPower 639621.8347222
scalar OsgEarthNet.cs[4] chargedMobileNodes 95
scalar OsgEarthNet.cs[4] reservations 138
scalar OsgEarthNet.cs[5] usedPower 210505.89985005
scalar OsgEarthNet.cs[5] chargedPower 210505.89985005
scalar OsgEarthNet.cs[5] chargedMobileNodes 33
scalar OsgEarthNet.cs[5] reservations 44
scalar OsgEarthNet.cs[6] usedPower 3183692.6638195
scalar OsgEarthNet.cs[6] chargedPower 3183692.6638195
scalar OsgEarthNet.cs[6] chargedMobileNodes 677
scalar OsgEarthNet.cs[6] reservations 694

