version 2
run Szenario_Hotel_Gabelbach-20-20180710-14:17:20-20360
attr configname Szenario_Hotel_Gabelbach
attr datetime 20180710-14:17:20
attr experiment Szenario_Hotel_Gabelbach
attr inifile omnetpp.ini
attr iterationvars "$replM=0, $replSearchM=1"
attr iterationvarsf replM=0,replSearchM=1-
attr measurement "$replM=0, $replSearchM=1"
attr network OsgEarthNet
attr processid 20360
attr repetition 4
attr replication #4
attr resultdir results
attr runnumber 20
attr seedset 20
itervar replM 0
itervar replSearchM 1
param *.osgEarthScene.scene "\"Szenario_Hotel_Gabelbach.earth\""
param *.playgroundLatitude 50.6830269
param *.playgroundLongitude 10.8538055
param *.playgroundWidth 3500m
param *.playgroundHeight 3500m
param *.numUAVs 100
param *.cs[0].posX 3537m
param *.cs[0].posY 965m
param *.cs[0].posZ 538m
param *.cs[1].posX 312m
param *.cs[1].posY 1262m
param *.cs[1].posZ 539m
param *.cs[2].posX 2185m
param *.cs[2].posY 3026m
param *.cs[2].posZ 777m
param *.cs[3].posX 10m
param *.cs[3].posY 2200m
param *.cs[3].posZ 560m
param *.cs[4].posX 750m
param *.cs[4].posY 200m
param *.cs[4].posZ 540m
param *.cs[5].posX 2450m
param *.cs[5].posY 180m
param *.cs[5].posZ 524m
param *.cs[6].posX 3140m
param *.cs[6].posY 1790m
param *.cs[6].posZ 606m
param *.numCSs 7
param *.uav[*].replacementMethod 0
param *.missionControl.replacementSearchMethod 1
param *.*.timeStep 10s
param *.uav[*].commandPreviewCommandCount 20
param *.missionControl.missionFiles "\"missions\\\\Szenario_WB_Hotel_Gabelbach_Mission_Hotel.waypoints,missions\\\\Szenario_WB_Hotel_Gabelbach_Mission_Kickelhahn.waypoints,missions\\\\Szenario_WB_Hotel_Gabelbach_Mission_Ilmenau_Sportplatz.waypoints,missions\\\\Szenario_WB_Hotel_Gabelbach_Mission_Manebach_Mitte.waypoints,missions\\\\Szenario_WB_Hotel_Gabelbach_Mission_Manebach_Sued.waypoints\""
param *.missionControl.missionFiles "\"missions\\\\Szenario_WB_Hotel_Gabelbach_Mission_Hotel.waypoints,missions\\\\Szenario_WB_Hotel_Gabelbach_Mission_Kickelhahn.waypoints,missions\\\\Szenario_WB_Hotel_Gabelbach_Mission_Ilmenau_Sportplatz.waypoints,missions\\\\Szenario_WB_Hotel_Gabelbach_Mission_Manebach_Mitte.waypoints,missions\\\\Szenario_WB_Hotel_Gabelbach_Mission_Manebach_Sued.waypoints,missions\\\\Szenario_WB_Hotel_Gabelbach_Hover_HoheSchlaufe.waypoints,missions\\\\Szenario_WB_Hotel_Gabelbach_Hover_Kickelhahn.waypoints,missions\\\\Szenario_WB_Hotel_Gabelbach_Hover_Gabelbachskopf.waypoints,missions\\\\Szenario_WB_Hotel_Gabelbach_Hover_Dachskopf.waypoints\""
param *.uav[0].startX 3537m
param *.uav[0].startY 965m
param *.uav[0].startZ 539m
param *.uav[1].startX 312m
param *.uav[1].startY 1262m
param *.uav[1].startZ 540m
param *.uav[2].startX 2185m
param *.uav[2].startY 3026m
param *.uav[2].startZ 778m
param *.uav[3].startX 3537m
param *.uav[3].startY 965m
param *.uav[3].startZ 539m
param *.uav[4].startX 312m
param *.uav[4].startY 1262m
param *.uav[4].startZ 540m
param *.uav[5].startX 2185m
param *.uav[5].startY 3026m
param *.uav[5].startZ 778m
param *.uav[6].startX 3537m
param *.uav[6].startY 965m
param *.uav[6].startZ 539m
param *.uav[7].startX 312m
param *.uav[7].startY 1262m
param *.uav[7].startZ 540m
param *.uav[8].startX 2185m
param *.uav[8].startY 3026m
param *.uav[8].startZ 778m
param *.uav[9].startX 3537m
param *.uav[9].startY 965m
param *.uav[9].startZ 539m
param *.uav[10].startX 3537m
param *.uav[10].startY 965m
param *.uav[10].startZ 539m
param *.uav[11].startX 312m
param *.uav[11].startY 1262m
param *.uav[11].startZ 540m
param *.uav[12].startX 2185m
param *.uav[12].startY 3026m
param *.uav[12].startZ 778m
param *.uav[13].startX 3537m
param *.uav[13].startY 965m
param *.uav[13].startZ 539m
param *.uav[14].startX 312m
param *.uav[14].startY 1262m
param *.uav[14].startZ 540m
param *.uav[15].startX 2185m
param *.uav[15].startY 3026m
param *.uav[15].startZ 778m
param *.uav[16].startX 3537m
param *.uav[16].startY 965m
param *.uav[16].startZ 539m
param *.uav[17].startX 312m
param *.uav[17].startY 1262m
param *.uav[17].startZ 540m
param *.uav[18].startX 2185m
param *.uav[18].startY 3026m
param *.uav[18].startZ 778m
param *.uav[19].startX 3537m
param *.uav[19].startY 965m
param *.uav[19].startZ 539m
param *.uav[20].startX 3537m
param *.uav[20].startY 965m
param *.uav[20].startZ 539m
param *.uav[21].startX 312m
param *.uav[21].startY 1262m
param *.uav[21].startZ 540m
param *.uav[22].startX 2185m
param *.uav[22].startY 3026m
param *.uav[22].startZ 778m
param *.uav[23].startX 3537m
param *.uav[23].startY 965m
param *.uav[23].startZ 539m
param *.uav[24].startX 312m
param *.uav[24].startY 1262m
param *.uav[24].startZ 540m
param *.uav[25].startX 2185m
param *.uav[25].startY 3026m
param *.uav[25].startZ 778m
param *.uav[26].startX 3537m
param *.uav[26].startY 965m
param *.uav[26].startZ 539m
param *.uav[27].startX 312m
param *.uav[27].startY 1262m
param *.uav[27].startZ 540m
param *.uav[28].startX 2185m
param *.uav[28].startY 3026m
param *.uav[28].startZ 778m
param *.uav[29].startX 3537m
param *.uav[29].startY 965m
param *.uav[29].startZ 539m
param *.uav[30].startX 3537m
param *.uav[30].startY 965m
param *.uav[30].startZ 539m
param *.uav[31].startX 312m
param *.uav[31].startY 1262m
param *.uav[31].startZ 540m
param *.uav[32].startX 2185m
param *.uav[32].startY 3026m
param *.uav[32].startZ 778m
param *.uav[33].startX 3537m
param *.uav[33].startY 965m
param *.uav[33].startZ 539m
param *.uav[34].startX 312m
param *.uav[34].startY 1262m
param *.uav[34].startZ 540m
param *.uav[35].startX 2185m
param *.uav[35].startY 3026m
param *.uav[35].startZ 778m
param *.uav[36].startX 3537m
param *.uav[36].startY 965m
param *.uav[36].startZ 539m
param *.uav[37].startX 312m
param *.uav[37].startY 1262m
param *.uav[37].startZ 540m
param *.uav[38].startX 2185m
param *.uav[38].startY 3026m
param *.uav[38].startZ 778m
param *.uav[39].startX 3537m
param *.uav[39].startY 965m
param *.uav[39].startZ 539m
param *.uav[40].startX 3537m
param *.uav[40].startY 965m
param *.uav[40].startZ 539m
param *.uav[41].startX 312m
param *.uav[41].startY 1262m
param *.uav[41].startZ 540m
param *.uav[42].startX 2185m
param *.uav[42].startY 3026m
param *.uav[42].startZ 778m
param *.uav[43].startX 3537m
param *.uav[43].startY 965m
param *.uav[43].startZ 539m
param *.uav[44].startX 312m
param *.uav[44].startY 1262m
param *.uav[44].startZ 540m
param *.uav[45].startX 2185m
param *.uav[45].startY 3026m
param *.uav[45].startZ 778m
param *.uav[46].startX 3537m
param *.uav[46].startY 965m
param *.uav[46].startZ 539m
param *.uav[47].startX 312m
param *.uav[47].startY 1262m
param *.uav[47].startZ 540m
param *.uav[48].startX 2185m
param *.uav[48].startY 3026m
param *.uav[48].startZ 778m
param *.uav[49].startX 3537m
param *.uav[49].startY 965m
param *.uav[49].startZ 539m
param *.uav[50].startX 3537m
param *.uav[50].startY 965m
param *.uav[50].startZ 539m
param *.uav[51].startX 312m
param *.uav[51].startY 1262m
param *.uav[51].startZ 540m
param *.uav[52].startX 2185m
param *.uav[52].startY 3026m
param *.uav[52].startZ 778m
param *.uav[53].startX 3537m
param *.uav[53].startY 965m
param *.uav[53].startZ 539m
param *.uav[54].startX 312m
param *.uav[54].startY 1262m
param *.uav[54].startZ 540m
param *.uav[55].startX 2185m
param *.uav[55].startY 3026m
param *.uav[55].startZ 778m
param *.uav[56].startX 3537m
param *.uav[56].startY 965m
param *.uav[56].startZ 539m
param *.uav[57].startX 312m
param *.uav[57].startY 1262m
param *.uav[57].startZ 540m
param *.uav[58].startX 2185m
param *.uav[58].startY 3026m
param *.uav[58].startZ 778m
param *.uav[59].startX 3537m
param *.uav[59].startY 965m
param *.uav[59].startZ 539m
param *.uav[60].startX 3537m
param *.uav[60].startY 965m
param *.uav[60].startZ 539m
param *.uav[61].startX 312m
param *.uav[61].startY 1262m
param *.uav[61].startZ 540m
param *.uav[62].startX 2185m
param *.uav[62].startY 3026m
param *.uav[62].startZ 778m
param *.uav[63].startX 3537m
param *.uav[63].startY 965m
param *.uav[63].startZ 539m
param *.uav[64].startX 312m
param *.uav[64].startY 1262m
param *.uav[64].startZ 540m
param *.uav[65].startX 2185m
param *.uav[65].startY 3026m
param *.uav[65].startZ 778m
param *.uav[66].startX 3537m
param *.uav[66].startY 965m
param *.uav[66].startZ 539m
param *.uav[67].startX 312m
param *.uav[67].startY 1262m
param *.uav[67].startZ 540m
param *.uav[68].startX 2185m
param *.uav[68].startY 3026m
param *.uav[68].startZ 778m
param *.uav[69].startX 3537m
param *.uav[69].startY 965m
param *.uav[69].startZ 539m
param *.uav[70].startX 3537m
param *.uav[70].startY 965m
param *.uav[70].startZ 539m
param *.uav[71].startX 312m
param *.uav[71].startY 1262m
param *.uav[71].startZ 540m
param *.uav[72].startX 2185m
param *.uav[72].startY 3026m
param *.uav[72].startZ 778m
param *.uav[73].startX 3537m
param *.uav[73].startY 965m
param *.uav[73].startZ 539m
param *.uav[74].startX 312m
param *.uav[74].startY 1262m
param *.uav[74].startZ 540m
param *.uav[75].startX 2185m
param *.uav[75].startY 3026m
param *.uav[75].startZ 778m
param *.uav[76].startX 3537m
param *.uav[76].startY 965m
param *.uav[76].startZ 539m
param *.uav[77].startX 312m
param *.uav[77].startY 1262m
param *.uav[77].startZ 540m
param *.uav[78].startX 2185m
param *.uav[78].startY 3026m
param *.uav[78].startZ 778m
param *.uav[79].startX 3537m
param *.uav[79].startY 965m
param *.uav[79].startZ 539m
param *.uav[80].startX 3537m
param *.uav[80].startY 965m
param *.uav[80].startZ 539m
param *.uav[81].startX 312m
param *.uav[81].startY 1262m
param *.uav[81].startZ 540m
param *.uav[82].startX 2185m
param *.uav[82].startY 3026m
param *.uav[82].startZ 778m
param *.uav[83].startX 3537m
param *.uav[83].startY 965m
param *.uav[83].startZ 539m
param *.uav[84].startX 312m
param *.uav[84].startY 1262m
param *.uav[84].startZ 540m
param *.uav[85].startX 2185m
param *.uav[85].startY 3026m
param *.uav[85].startZ 778m
param *.uav[86].startX 3537m
param *.uav[86].startY 965m
param *.uav[86].startZ 539m
param *.uav[87].startX 312m
param *.uav[87].startY 1262m
param *.uav[87].startZ 540m
param *.uav[88].startX 2185m
param *.uav[88].startY 3026m
param *.uav[88].startZ 778m
param *.uav[89].startX 3537m
param *.uav[89].startY 965m
param *.uav[89].startZ 539m
param *.uav[90].startX 3537m
param *.uav[90].startY 965m
param *.uav[90].startZ 539m
param *.uav[91].startX 312m
param *.uav[91].startY 1262m
param *.uav[91].startZ 540m
param *.uav[92].startX 2185m
param *.uav[92].startY 3026m
param *.uav[92].startZ 778m
param *.uav[93].startX 3537m
param *.uav[93].startY 965m
param *.uav[93].startZ 539m
param *.uav[94].startX 312m
param *.uav[94].startY 1262m
param *.uav[94].startZ 540m
param *.uav[95].startX 2185m
param *.uav[95].startY 3026m
param *.uav[95].startZ 778m
param *.uav[96].startX 3537m
param *.uav[96].startY 965m
param *.uav[96].startZ 539m
param *.uav[97].startX 312m
param *.uav[97].startY 1262m
param *.uav[97].startZ 540m
param *.uav[98].startX 2185m
param *.uav[98].startY 3026m
param *.uav[98].startZ 778m
param *.uav[99].startX 3537m
param *.uav[99].startY 965m
param *.uav[99].startZ 539m
param *.osgEarthScene.scene "\"boston.earth\""
param *.playgroundLatitude 42.3558
param *.playgroundLongitude -71.0677
param *.playgroundWidth 400m
param *.playgroundHeight 200m
param *.channelController.connectionColor "\"#0000FF40\""
param *.channelController.showConnections false
param *.uav[*].modelURL "\"quadrocopter.small.obj.15.scale.0,0,90.rot\""
param *.uav[*].labelColor "\"#FF7C00CC\""
param *.uav[*].label2Color "\"#FF7C00EE\""
param *.uav[*].batteryCapacity 5200mAh
param *.uav[*].batteryRemaining uav[index].batteryCapacity
param *.uav[*].predictionQuantile 0.95
param *.uav[*].replacementMethod 2
param *.uav[*].weightedSumWeight 0.5
param *.cs[*].modelURL "\"chargingstation_v1.osgt.2.scale.0,0,0.rot.0,0,-15e-1.trans\""
param *.cs[*].spotsWaiting 999
param *.cs[*].spotsCharging 999
param *.cs[*].chargeEffectivenessPercentage 100
param *.cs[*].nonLinearPhaseStartPercentage 85
param *.cs[*].chargeCurrent 6.0A
param *.cs[*].prioritizeFastCharge true
param *.missionControl.replacementSearchMethod 0
param *.*.timeStep 9s

scalar OsgEarthNet.uav[0] utilizationSecMission 1510.8298800585
scalar OsgEarthNet.uav[0] utilizationSecMaintenance 458.03501976103
scalar OsgEarthNet.uav[0] utilizationSecCharge 7550
scalar OsgEarthNet.uav[0] utilizationSecIdle 249681.13410018
scalar OsgEarthNet.uav[0] utilizationEnergyMission 7153.5589828491
scalar OsgEarthNet.uav[0] utilizationEnergyMaintenance 2316.6133651733
scalar OsgEarthNet.uav[0] utilizationEnergyCharge 9470.1713867188
scalar OsgEarthNet.uav[0] utilizationEnergyOverdrawMission 0
scalar OsgEarthNet.uav[0] utilizationEnergyOverdrawMaintenance 0
scalar OsgEarthNet.uav[0] utilizationCountMissions 2
scalar OsgEarthNet.uav[0] utilizationCountManeuversMission 23
scalar OsgEarthNet.uav[0] utilizationCountManeuversMaintenance 4
scalar OsgEarthNet.uav[0] utilizationCountChargeState 2
scalar OsgEarthNet.uav[0] utilizationCountOverdrawnAfterMission 0
scalar OsgEarthNet.uav[0] utilizationCountIdleState 3
scalar OsgEarthNet.uav[0] utilizationFail 0
scalar OsgEarthNet.uav[0] simulationTime 259200
scalar OsgEarthNet.uav[1] utilizationSecMission 5379.3550935378
scalar OsgEarthNet.uav[1] utilizationSecMaintenance 2503.9152781008
scalar OsgEarthNet.uav[1] utilizationSecCharge 29490
scalar OsgEarthNet.uav[1] utilizationSecIdle 221826.72862836
scalar OsgEarthNet.uav[1] utilizationEnergyMission 24916.756767273
scalar OsgEarthNet.uav[1] utilizationEnergyMaintenance 12088.81539917
scalar OsgEarthNet.uav[1] utilizationEnergyCharge 37005.574707031
scalar OsgEarthNet.uav[1] utilizationEnergyOverdrawMission 0
scalar OsgEarthNet.uav[1] utilizationEnergyOverdrawMaintenance 0
scalar OsgEarthNet.uav[1] utilizationCountMissions 8
scalar OsgEarthNet.uav[1] utilizationCountManeuversMission 89
scalar OsgEarthNet.uav[1] utilizationCountManeuversMaintenance 16
scalar OsgEarthNet.uav[1] utilizationCountChargeState 8
scalar OsgEarthNet.uav[1] utilizationCountOverdrawnAfterMission 0
scalar OsgEarthNet.uav[1] utilizationCountIdleState 8
scalar OsgEarthNet.uav[1] utilizationFail 0
scalar OsgEarthNet.uav[1] simulationTime 259200
scalar OsgEarthNet.uav[2] utilizationSecMission 10790.073746628
scalar OsgEarthNet.uav[2] utilizationSecMaintenance 3543.6192704724
scalar OsgEarthNet.uav[2] utilizationSecCharge 52640
scalar OsgEarthNet.uav[2] utilizationSecIdle 192226.3059829
scalar OsgEarthNet.uav[2] utilizationEnergyMission 50209.729919434
scalar OsgEarthNet.uav[2] utilizationEnergyMaintenance 15976.950122833
scalar OsgEarthNet.uav[2] utilizationEnergyCharge 66041.080566406
scalar OsgEarthNet.uav[2] utilizationEnergyOverdrawMission 0
scalar OsgEarthNet.uav[2] utilizationEnergyOverdrawMaintenance 0
scalar OsgEarthNet.uav[2] utilizationCountMissions 14
scalar OsgEarthNet.uav[2] utilizationCountManeuversMission 186
scalar OsgEarthNet.uav[2] utilizationCountManeuversMaintenance 28
scalar OsgEarthNet.uav[2] utilizationCountChargeState 14
scalar OsgEarthNet.uav[2] utilizationCountOverdrawnAfterMission 0
scalar OsgEarthNet.uav[2] utilizationCountIdleState 15
scalar OsgEarthNet.uav[2] utilizationFail 0
scalar OsgEarthNet.uav[2] simulationTime 259200
scalar OsgEarthNet.uav[3] utilizationSecMission 3021.6597601171
scalar OsgEarthNet.uav[3] utilizationSecMaintenance 948.98847217565
scalar OsgEarthNet.uav[3] utilizationSecCharge 14760
scalar OsgEarthNet.uav[3] utilizationSecIdle 240469.35076771
scalar OsgEarthNet.uav[3] utilizationEnergyMission 13806.482681274
scalar OsgEarthNet.uav[3] utilizationEnergyMaintenance 4578.4879722595
scalar OsgEarthNet.uav[3] utilizationEnergyCharge 18384.974121094
scalar OsgEarthNet.uav[3] utilizationEnergyOverdrawMission 0
scalar OsgEarthNet.uav[3] utilizationEnergyOverdrawMaintenance 0
scalar OsgEarthNet.uav[3] utilizationCountMissions 4
scalar OsgEarthNet.uav[3] utilizationCountManeuversMission 46
scalar OsgEarthNet.uav[3] utilizationCountManeuversMaintenance 8
scalar OsgEarthNet.uav[3] utilizationCountChargeState 4
scalar OsgEarthNet.uav[3] utilizationCountOverdrawnAfterMission 0
scalar OsgEarthNet.uav[3] utilizationCountIdleState 5
scalar OsgEarthNet.uav[3] utilizationFail 0
scalar OsgEarthNet.uav[3] simulationTime 259200
scalar OsgEarthNet.uav[4] utilizationSecMission 4652.0220228256
scalar OsgEarthNet.uav[4] utilizationSecMaintenance 2405.1210165867
scalar OsgEarthNet.uav[4] utilizationSecCharge 26020
scalar OsgEarthNet.uav[4] utilizationSecIdle 226122.85596059
scalar OsgEarthNet.uav[4] utilizationEnergyMission 21331.962768555
scalar OsgEarthNet.uav[4] utilizationEnergyMaintenance 11775.328479767
scalar OsgEarthNet.uav[4] utilizationEnergyCharge 33107.291503906
scalar OsgEarthNet.uav[4] utilizationEnergyOverdrawMission 0
scalar OsgEarthNet.uav[4] utilizationEnergyOverdrawMaintenance 0
scalar OsgEarthNet.uav[4] utilizationCountMissions 7
scalar OsgEarthNet.uav[4] utilizationCountManeuversMission 77
scalar OsgEarthNet.uav[4] utilizationCountManeuversMaintenance 14
scalar OsgEarthNet.uav[4] utilizationCountChargeState 7
scalar OsgEarthNet.uav[4] utilizationCountOverdrawnAfterMission 0
scalar OsgEarthNet.uav[4] utilizationCountIdleState 7
scalar OsgEarthNet.uav[4] utilizationFail 0
scalar OsgEarthNet.uav[4] simulationTime 259200
scalar OsgEarthNet.uav[5] utilizationSecMission 3570.7802961839
scalar OsgEarthNet.uav[5] utilizationSecMaintenance 1594.7732019851
scalar OsgEarthNet.uav[5] utilizationSecCharge 18750
scalar OsgEarthNet.uav[5] utilizationSecIdle 235284.44550183
scalar OsgEarthNet.uav[5] utilizationEnergyMission 16020.798351288
scalar OsgEarthNet.uav[5] utilizationEnergyMaintenance 7486.6632957458
scalar OsgEarthNet.uav[5] utilizationEnergyCharge 23507.467773438
scalar OsgEarthNet.uav[5] utilizationEnergyOverdrawMission 0
scalar OsgEarthNet.uav[5] utilizationEnergyOverdrawMaintenance 0
scalar OsgEarthNet.uav[5] utilizationCountMissions 5
scalar OsgEarthNet.uav[5] utilizationCountManeuversMission 56
scalar OsgEarthNet.uav[5] utilizationCountManeuversMaintenance 10
scalar OsgEarthNet.uav[5] utilizationCountChargeState 5
scalar OsgEarthNet.uav[5] utilizationCountOverdrawnAfterMission 0
scalar OsgEarthNet.uav[5] utilizationCountIdleState 6
scalar OsgEarthNet.uav[5] utilizationFail 0
scalar OsgEarthNet.uav[5] simulationTime 259200
scalar OsgEarthNet.uav[6] utilizationSecMission 5981.1320389934
scalar OsgEarthNet.uav[6] utilizationSecMaintenance 1773.6631361887
scalar OsgEarthNet.uav[6] utilizationSecCharge 26634.597553776
scalar OsgEarthNet.uav[6] utilizationSecIdle 224810.60627104
scalar OsgEarthNet.uav[6] utilizationEnergyMission 27955.226531982
scalar OsgEarthNet.uav[6] utilizationEnergyMaintenance 8793.0659484863
scalar OsgEarthNet.uav[6] utilizationEnergyCharge 33502.784667969
scalar OsgEarthNet.uav[6] utilizationEnergyOverdrawMission 0
scalar OsgEarthNet.uav[6] utilizationEnergyOverdrawMaintenance 0
scalar OsgEarthNet.uav[6] utilizationCountMissions 8
scalar OsgEarthNet.uav[6] utilizationCountManeuversMission 91
scalar OsgEarthNet.uav[6] utilizationCountManeuversMaintenance 16
scalar OsgEarthNet.uav[6] utilizationCountChargeState 8
scalar OsgEarthNet.uav[6] utilizationCountOverdrawnAfterMission 0
scalar OsgEarthNet.uav[6] utilizationCountIdleState 8
scalar OsgEarthNet.uav[6] utilizationFail 0
scalar OsgEarthNet.uav[6] simulationTime 259200
scalar OsgEarthNet.uav[7] utilizationSecMission 13426.248831843
scalar OsgEarthNet.uav[7] utilizationSecMaintenance 5096.7404431607
scalar OsgEarthNet.uav[7] utilizationSecCharge 69890
scalar OsgEarthNet.uav[7] utilizationSecIdle 170787.009725
scalar OsgEarthNet.uav[7] utilizationEnergyMission 62899.761131287
scalar OsgEarthNet.uav[7] utilizationEnergyMaintenance 23883.718204498
scalar OsgEarthNet.uav[7] utilizationEnergyCharge 86783.471679688
scalar OsgEarthNet.uav[7] utilizationEnergyOverdrawMission 0
scalar OsgEarthNet.uav[7] utilizationEnergyOverdrawMaintenance 0
scalar OsgEarthNet.uav[7] utilizationCountMissions 19
scalar OsgEarthNet.uav[7] utilizationCountManeuversMission 210
scalar OsgEarthNet.uav[7] utilizationCountManeuversMaintenance 37
scalar OsgEarthNet.uav[7] utilizationCountChargeState 19
scalar OsgEarthNet.uav[7] utilizationCountOverdrawnAfterMission 0
scalar OsgEarthNet.uav[7] utilizationCountIdleState 20
scalar OsgEarthNet.uav[7] utilizationFail 0
scalar OsgEarthNet.uav[7] simulationTime 259200
scalar OsgEarthNet.uav[8] utilizationSecMission 2969.1791923599
scalar OsgEarthNet.uav[8] utilizationSecMaintenance 1140.8031670881
scalar OsgEarthNet.uav[8] utilizationSecCharge 15160
scalar OsgEarthNet.uav[8] utilizationSecIdle 239930.01664055
scalar OsgEarthNet.uav[8] utilizationEnergyMission 13523.882957458
scalar OsgEarthNet.uav[8] utilizationEnergyMaintenance 5429.650844574
scalar OsgEarthNet.uav[8] utilizationEnergyCharge 19017.2578125
scalar OsgEarthNet.uav[8] utilizationEnergyOverdrawMission 0
scalar OsgEarthNet.uav[8] utilizationEnergyOverdrawMaintenance 0
scalar OsgEarthNet.uav[8] utilizationCountMissions 4
scalar OsgEarthNet.uav[8] utilizationCountManeuversMission 53
scalar OsgEarthNet.uav[8] utilizationCountManeuversMaintenance 8
scalar OsgEarthNet.uav[8] utilizationCountChargeState 4
scalar OsgEarthNet.uav[8] utilizationCountOverdrawnAfterMission 0
scalar OsgEarthNet.uav[8] utilizationCountIdleState 5
scalar OsgEarthNet.uav[8] utilizationFail 0
scalar OsgEarthNet.uav[8] simulationTime 259200
scalar OsgEarthNet.uav[9] utilizationSecMission 7049.3398698001
scalar OsgEarthNet.uav[9] utilizationSecMaintenance 2876.824136376
scalar OsgEarthNet.uav[9] utilizationSecCharge 37090
scalar OsgEarthNet.uav[9] utilizationSecIdle 212183.83499382
scalar OsgEarthNet.uav[9] utilizationEnergyMission 32765.628242493
scalar OsgEarthNet.uav[9] utilizationEnergyMaintenance 13628.323295593
scalar OsgEarthNet.uav[9] utilizationEnergyCharge 46333.612304688
scalar OsgEarthNet.uav[9] utilizationEnergyOverdrawMission 0
scalar OsgEarthNet.uav[9] utilizationEnergyOverdrawMaintenance 0
scalar OsgEarthNet.uav[9] utilizationCountMissions 10
scalar OsgEarthNet.uav[9] utilizationCountManeuversMission 111
scalar OsgEarthNet.uav[9] utilizationCountManeuversMaintenance 20
scalar OsgEarthNet.uav[9] utilizationCountChargeState 10
scalar OsgEarthNet.uav[9] utilizationCountOverdrawnAfterMission 0
scalar OsgEarthNet.uav[9] utilizationCountIdleState 11
scalar OsgEarthNet.uav[9] utilizationFail 0
scalar OsgEarthNet.uav[9] simulationTime 259200
scalar OsgEarthNet.uav[10] utilizationSecMission 1901.4602240474
scalar OsgEarthNet.uav[10] utilizationSecMaintenance 1145.5806893053
scalar OsgEarthNet.uav[10] utilizationSecCharge 11190
scalar OsgEarthNet.uav[10] utilizationSecIdle 244962.95808665
scalar OsgEarthNet.uav[10] utilizationEnergyMission 8459.8173980713
scalar OsgEarthNet.uav[10] utilizationEnergyMaintenance 5483.7629547119
scalar OsgEarthNet.uav[10] utilizationEnergyCharge 13943.585449219
scalar OsgEarthNet.uav[10] utilizationEnergyOverdrawMission 0
scalar OsgEarthNet.uav[10] utilizationEnergyOverdrawMaintenance 0
scalar OsgEarthNet.uav[10] utilizationCountMissions 3
scalar OsgEarthNet.uav[10] utilizationCountManeuversMission 30
scalar OsgEarthNet.uav[10] utilizationCountManeuversMaintenance 6
scalar OsgEarthNet.uav[10] utilizationCountChargeState 3
scalar OsgEarthNet.uav[10] utilizationCountOverdrawnAfterMission 0
scalar OsgEarthNet.uav[10] utilizationCountIdleState 4
scalar OsgEarthNet.uav[10] utilizationFail 0
scalar OsgEarthNet.uav[10] simulationTime 259200
scalar OsgEarthNet.uav[11] utilizationSecMission 3478.8804556762
scalar OsgEarthNet.uav[11] utilizationSecMaintenance 1578.4311273085
scalar OsgEarthNet.uav[11] utilizationSecCharge 18780
scalar OsgEarthNet.uav[11] utilizationSecIdle 235362.68741702
scalar OsgEarthNet.uav[11] utilizationEnergyMission 15739.467910767
scalar OsgEarthNet.uav[11] utilizationEnergyMaintenance 7832.5784873962
scalar OsgEarthNet.uav[11] utilizationEnergyCharge 23572.049804688
scalar OsgEarthNet.uav[11] utilizationEnergyOverdrawMission 0
scalar OsgEarthNet.uav[11] utilizationEnergyOverdrawMaintenance 0
scalar OsgEarthNet.uav[11] utilizationCountMissions 5
scalar OsgEarthNet.uav[11] utilizationCountManeuversMission 54
scalar OsgEarthNet.uav[11] utilizationCountManeuversMaintenance 10
scalar OsgEarthNet.uav[11] utilizationCountChargeState 5
scalar OsgEarthNet.uav[11] utilizationCountOverdrawnAfterMission 0
scalar OsgEarthNet.uav[11] utilizationCountIdleState 6
scalar OsgEarthNet.uav[11] utilizationFail 0
scalar OsgEarthNet.uav[11] simulationTime 259200
scalar OsgEarthNet.uav[12] utilizationSecMission 2009.1794311614
scalar OsgEarthNet.uav[12] utilizationSecMaintenance 934.71601000565
scalar OsgEarthNet.uav[12] utilizationSecCharge 11350
scalar OsgEarthNet.uav[12] utilizationSecIdle 244906.10355883
scalar OsgEarthNet.uav[12] utilizationEnergyMission 9935.0725021362
scalar OsgEarthNet.uav[12] utilizationEnergyMaintenance 4254.8074798584
scalar OsgEarthNet.uav[12] utilizationEnergyCharge 14189.876953125
scalar OsgEarthNet.uav[12] utilizationEnergyOverdrawMission 0
scalar OsgEarthNet.uav[12] utilizationEnergyOverdrawMaintenance 0
scalar OsgEarthNet.uav[12] utilizationCountMissions 3
scalar OsgEarthNet.uav[12] utilizationCountManeuversMission 38
scalar OsgEarthNet.uav[12] utilizationCountManeuversMaintenance 6
scalar OsgEarthNet.uav[12] utilizationCountChargeState 3
scalar OsgEarthNet.uav[12] utilizationCountOverdrawnAfterMission 0
scalar OsgEarthNet.uav[12] utilizationCountIdleState 4
scalar OsgEarthNet.uav[12] utilizationFail 0
scalar OsgEarthNet.uav[12] simulationTime 259200
scalar OsgEarthNet.uav[13] utilizationSecMission 4900.272856129
scalar OsgEarthNet.uav[13] utilizationSecMaintenance 2267.1103482674
scalar OsgEarthNet.uav[13] utilizationSecCharge 26540
scalar OsgEarthNet.uav[13] utilizationSecIdle 225492.6157956
scalar OsgEarthNet.uav[13] utilizationEnergyMission 22458.595123291
scalar OsgEarthNet.uav[13] utilizationEnergyMaintenance 10877.6796875
scalar OsgEarthNet.uav[13] utilizationEnergyCharge 33336.270019531
scalar OsgEarthNet.uav[13] utilizationEnergyOverdrawMission 0
scalar OsgEarthNet.uav[13] utilizationEnergyOverdrawMaintenance 0
scalar OsgEarthNet.uav[13] utilizationCountMissions 7
scalar OsgEarthNet.uav[13] utilizationCountManeuversMission 77
scalar OsgEarthNet.uav[13] utilizationCountManeuversMaintenance 14
scalar OsgEarthNet.uav[13] utilizationCountChargeState 7
scalar OsgEarthNet.uav[13] utilizationCountOverdrawnAfterMission 0
scalar OsgEarthNet.uav[13] utilizationCountIdleState 8
scalar OsgEarthNet.uav[13] utilizationFail 0
scalar OsgEarthNet.uav[13] simulationTime 259200
scalar OsgEarthNet.uav[14] utilizationSecMission 3155.4950953956
scalar OsgEarthNet.uav[14] utilizationSecMaintenance 1880.3273646347
scalar OsgEarthNet.uav[14] utilizationSecCharge 18790
scalar OsgEarthNet.uav[14] utilizationSecIdle 235374.17653997
scalar OsgEarthNet.uav[14] utilizationEnergyMission 14306.156005859
scalar OsgEarthNet.uav[14] utilizationEnergyMaintenance 9246.9666519165
scalar OsgEarthNet.uav[14] utilizationEnergyCharge 23553.122558594
scalar OsgEarthNet.uav[14] utilizationEnergyOverdrawMission 0
scalar OsgEarthNet.uav[14] utilizationEnergyOverdrawMaintenance 0
scalar OsgEarthNet.uav[14] utilizationCountMissions 5
scalar OsgEarthNet.uav[14] utilizationCountManeuversMission 53
scalar OsgEarthNet.uav[14] utilizationCountManeuversMaintenance 10
scalar OsgEarthNet.uav[14] utilizationCountChargeState 5
scalar OsgEarthNet.uav[14] utilizationCountOverdrawnAfterMission 0
scalar OsgEarthNet.uav[14] utilizationCountIdleState 6
scalar OsgEarthNet.uav[14] utilizationFail 0
scalar OsgEarthNet.uav[14] simulationTime 259200
scalar OsgEarthNet.uav[15] utilizationSecMission 2703.1811258612
scalar OsgEarthNet.uav[15] utilizationSecMaintenance 1273.3487942772
scalar OsgEarthNet.uav[15] utilizationSecCharge 14850
scalar OsgEarthNet.uav[15] utilizationSecIdle 240373.46907986
scalar OsgEarthNet.uav[15] utilizationEnergyMission 12610.706550598
scalar OsgEarthNet.uav[15] utilizationEnergyMaintenance 5972.9102745056
scalar OsgEarthNet.uav[15] utilizationEnergyCharge 18583.619628906
scalar OsgEarthNet.uav[15] utilizationEnergyOverdrawMission 0
scalar OsgEarthNet.uav[15] utilizationEnergyOverdrawMaintenance 0
scalar OsgEarthNet.uav[15] utilizationCountMissions 4
scalar OsgEarthNet.uav[15] utilizationCountManeuversMission 51
scalar OsgEarthNet.uav[15] utilizationCountManeuversMaintenance 8
scalar OsgEarthNet.uav[15] utilizationCountChargeState 4
scalar OsgEarthNet.uav[15] utilizationCountOverdrawnAfterMission 0
scalar OsgEarthNet.uav[15] utilizationCountIdleState 5
scalar OsgEarthNet.uav[15] utilizationFail 0
scalar OsgEarthNet.uav[15] simulationTime 259200
scalar OsgEarthNet.uav[16] utilizationSecMission 8390.926475515
scalar OsgEarthNet.uav[16] utilizationSecMaintenance 2468.4487466116
scalar OsgEarthNet.uav[16] utilizationSecCharge 39514.418990765
scalar OsgEarthNet.uav[16] utilizationSecIdle 208826.20478711
scalar OsgEarthNet.uav[16] utilizationEnergyMission 39230.159240723
scalar OsgEarthNet.uav[16] utilizationEnergyMaintenance 12009.566074371
scalar OsgEarthNet.uav[16] utilizationEnergyCharge 50505.997802734
scalar OsgEarthNet.uav[16] utilizationEnergyOverdrawMission 0
scalar OsgEarthNet.uav[16] utilizationEnergyOverdrawMaintenance 0
scalar OsgEarthNet.uav[16] utilizationCountMissions 11
scalar OsgEarthNet.uav[16] utilizationCountManeuversMission 128
scalar OsgEarthNet.uav[16] utilizationCountManeuversMaintenance 22
scalar OsgEarthNet.uav[16] utilizationCountChargeState 11
scalar OsgEarthNet.uav[16] utilizationCountOverdrawnAfterMission 0
scalar OsgEarthNet.uav[16] utilizationCountIdleState 11
scalar OsgEarthNet.uav[16] utilizationFail 0
scalar OsgEarthNet.uav[16] simulationTime 259200
scalar OsgEarthNet.uav[17] utilizationSecMission 9029.2426358446
scalar OsgEarthNet.uav[17] utilizationSecMaintenance 4911.7153781383
scalar OsgEarthNet.uav[17] utilizationSecCharge 52090
scalar OsgEarthNet.uav[17] utilizationSecIdle 193169.04098602
scalar OsgEarthNet.uav[17] utilizationEnergyMission 41869.626739502
scalar OsgEarthNet.uav[17] utilizationEnergyMaintenance 23401.952594757
scalar OsgEarthNet.uav[17] utilizationEnergyCharge 65240.950683594
scalar OsgEarthNet.uav[17] utilizationEnergyOverdrawMission 0
scalar OsgEarthNet.uav[17] utilizationEnergyOverdrawMaintenance 0
scalar OsgEarthNet.uav[17] utilizationCountMissions 14
scalar OsgEarthNet.uav[17] utilizationCountManeuversMission 150
scalar OsgEarthNet.uav[17] utilizationCountManeuversMaintenance 28
scalar OsgEarthNet.uav[17] utilizationCountChargeState 14
scalar OsgEarthNet.uav[17] utilizationCountOverdrawnAfterMission 0
scalar OsgEarthNet.uav[17] utilizationCountIdleState 14
scalar OsgEarthNet.uav[17] utilizationFail 0
scalar OsgEarthNet.uav[17] simulationTime 259200
scalar OsgEarthNet.uav[18] utilizationSecMission 7447.5419639299
scalar OsgEarthNet.uav[18] utilizationSecMaintenance 1912.8959851191
scalar OsgEarthNet.uav[18] utilizationSecCharge 34380
scalar OsgEarthNet.uav[18] utilizationSecIdle 215459.56105095
scalar OsgEarthNet.uav[18] utilizationEnergyMission 34445.247711182
scalar OsgEarthNet.uav[18] utilizationEnergyMaintenance 8647.7571792603
scalar OsgEarthNet.uav[18] utilizationEnergyCharge 43379.379882812
scalar OsgEarthNet.uav[18] utilizationEnergyOverdrawMission 0
scalar OsgEarthNet.uav[18] utilizationEnergyOverdrawMaintenance 0
scalar OsgEarthNet.uav[18] utilizationCountMissions 9
scalar OsgEarthNet.uav[18] utilizationCountManeuversMission 124
scalar OsgEarthNet.uav[18] utilizationCountManeuversMaintenance 18
scalar OsgEarthNet.uav[18] utilizationCountChargeState 9
scalar OsgEarthNet.uav[18] utilizationCountOverdrawnAfterMission 0
scalar OsgEarthNet.uav[18] utilizationCountIdleState 10
scalar OsgEarthNet.uav[18] utilizationFail 0
scalar OsgEarthNet.uav[18] simulationTime 259200
scalar OsgEarthNet.uav[19] utilizationSecMission 11370.904535224
scalar OsgEarthNet.uav[19] utilizationSecMaintenance 3360.0781189066
scalar OsgEarthNet.uav[19] utilizationSecCharge 53385.297739188
scalar OsgEarthNet.uav[19] utilizationSecIdle 191083.71860668
scalar OsgEarthNet.uav[19] utilizationEnergyMission 51893.963890076
scalar OsgEarthNet.uav[19] utilizationEnergyMaintenance 16046.152729034
scalar OsgEarthNet.uav[19] utilizationEnergyCharge 67249.448974609
scalar OsgEarthNet.uav[19] utilizationEnergyOverdrawMission 0
scalar OsgEarthNet.uav[19] utilizationEnergyOverdrawMaintenance 0
scalar OsgEarthNet.uav[19] utilizationCountMissions 15
scalar OsgEarthNet.uav[19] utilizationCountManeuversMission 170
scalar OsgEarthNet.uav[19] utilizationCountManeuversMaintenance 30
scalar OsgEarthNet.uav[19] utilizationCountChargeState 15
scalar OsgEarthNet.uav[19] utilizationCountOverdrawnAfterMission 0
scalar OsgEarthNet.uav[19] utilizationCountIdleState 15
scalar OsgEarthNet.uav[19] utilizationFail 0
scalar OsgEarthNet.uav[19] simulationTime 259200
scalar OsgEarthNet.uav[20] utilizationSecMission 6422.745862722
scalar OsgEarthNet.uav[20] utilizationSecMaintenance 2569.2807643404
scalar OsgEarthNet.uav[20] utilizationSecCharge 31614.904755068
scalar OsgEarthNet.uav[20] utilizationSecIdle 218593.06761787
scalar OsgEarthNet.uav[20] utilizationEnergyMission 30085.343742371
scalar OsgEarthNet.uav[20] utilizationEnergyMaintenance 11903.080039978
scalar OsgEarthNet.uav[20] utilizationEnergyCharge 40335.320800781
scalar OsgEarthNet.uav[20] utilizationEnergyOverdrawMission 0
scalar OsgEarthNet.uav[20] utilizationEnergyOverdrawMaintenance 0
scalar OsgEarthNet.uav[20] utilizationCountMissions 9
scalar OsgEarthNet.uav[20] utilizationCountManeuversMission 102
scalar OsgEarthNet.uav[20] utilizationCountManeuversMaintenance 18
scalar OsgEarthNet.uav[20] utilizationCountChargeState 9
scalar OsgEarthNet.uav[20] utilizationCountOverdrawnAfterMission 0
scalar OsgEarthNet.uav[20] utilizationCountIdleState 9
scalar OsgEarthNet.uav[20] utilizationFail 0
scalar OsgEarthNet.uav[20] simulationTime 259200
scalar OsgEarthNet.uav[21] utilizationSecMission 3531.8658379516
scalar OsgEarthNet.uav[21] utilizationSecMaintenance 1541.9512788291
scalar OsgEarthNet.uav[21] utilizationSecCharge 18800
scalar OsgEarthNet.uav[21] utilizationSecIdle 235326.18188322
scalar OsgEarthNet.uav[21] utilizationEnergyMission 15951.689720154
scalar OsgEarthNet.uav[21] utilizationEnergyMaintenance 7642.3541221619
scalar OsgEarthNet.uav[21] utilizationEnergyCharge 23594.045898438
scalar OsgEarthNet.uav[21] utilizationEnergyOverdrawMission 0
scalar OsgEarthNet.uav[21] utilizationEnergyOverdrawMaintenance 0
scalar OsgEarthNet.uav[21] utilizationCountMissions 5
scalar OsgEarthNet.uav[21] utilizationCountManeuversMission 55
scalar OsgEarthNet.uav[21] utilizationCountManeuversMaintenance 10
scalar OsgEarthNet.uav[21] utilizationCountChargeState 5
scalar OsgEarthNet.uav[21] utilizationCountOverdrawnAfterMission 0
scalar OsgEarthNet.uav[21] utilizationCountIdleState 6
scalar OsgEarthNet.uav[21] utilizationFail 0
scalar OsgEarthNet.uav[21] simulationTime 259200
scalar OsgEarthNet.uav[22] utilizationSecMission 24939.366077615
scalar OsgEarthNet.uav[22] utilizationSecMaintenance 7983.292013822
scalar OsgEarthNet.uav[22] utilizationSecCharge 121320
scalar OsgEarthNet.uav[22] utilizationSecIdle 104957.34090856
scalar OsgEarthNet.uav[22] utilizationEnergyMission 115203.41987248
scalar OsgEarthNet.uav[22] utilizationEnergyMaintenance 37512.545471191
scalar OsgEarthNet.uav[22] utilizationEnergyCharge 152592.45410156
scalar OsgEarthNet.uav[22] utilizationEnergyOverdrawMission 0
scalar OsgEarthNet.uav[22] utilizationEnergyOverdrawMaintenance 0
scalar OsgEarthNet.uav[22] utilizationCountMissions 32
scalar OsgEarthNet.uav[22] utilizationCountManeuversMission 428
scalar OsgEarthNet.uav[22] utilizationCountManeuversMaintenance 63
scalar OsgEarthNet.uav[22] utilizationCountChargeState 32
scalar OsgEarthNet.uav[22] utilizationCountOverdrawnAfterMission 0
scalar OsgEarthNet.uav[22] utilizationCountIdleState 33
scalar OsgEarthNet.uav[22] utilizationFail 0
scalar OsgEarthNet.uav[22] simulationTime 259200
scalar OsgEarthNet.uav[23] utilizationSecMission 12204.137594147
scalar OsgEarthNet.uav[23] utilizationSecMaintenance 3730.9139927231
scalar OsgEarthNet.uav[23] utilizationSecCharge 57194.359564093
scalar OsgEarthNet.uav[23] utilizationSecIdle 186070.58784904
scalar OsgEarthNet.uav[23] utilizationEnergyMission 56784.405982971
scalar OsgEarthNet.uav[23] utilizationEnergyMaintenance 17626.080200195
scalar OsgEarthNet.uav[23] utilizationEnergyCharge 72235.844970703
scalar OsgEarthNet.uav[23] utilizationEnergyOverdrawMission 0
scalar OsgEarthNet.uav[23] utilizationEnergyOverdrawMaintenance 0
scalar OsgEarthNet.uav[23] utilizationCountMissions 16
scalar OsgEarthNet.uav[23] utilizationCountManeuversMission 184
scalar OsgEarthNet.uav[23] utilizationCountManeuversMaintenance 32
scalar OsgEarthNet.uav[23] utilizationCountChargeState 16
scalar OsgEarthNet.uav[23] utilizationCountOverdrawnAfterMission 0
scalar OsgEarthNet.uav[23] utilizationCountIdleState 16
scalar OsgEarthNet.uav[23] utilizationFail 0
scalar OsgEarthNet.uav[23] simulationTime 259200
scalar OsgEarthNet.uav[24] utilizationSecMission 8609.3266175199
scalar OsgEarthNet.uav[24] utilizationSecMaintenance 4277.0015395529
scalar OsgEarthNet.uav[24] utilizationSecCharge 47090.164261323
scalar OsgEarthNet.uav[24] utilizationSecIdle 199223.5065816
scalar OsgEarthNet.uav[24] utilizationEnergyMission 39578.7970047
scalar OsgEarthNet.uav[24] utilizationEnergyMaintenance 20280.237819672
scalar OsgEarthNet.uav[24] utilizationEnergyCharge 59729.423828125
scalar OsgEarthNet.uav[24] utilizationEnergyOverdrawMission 0
scalar OsgEarthNet.uav[24] utilizationEnergyOverdrawMaintenance 0
scalar OsgEarthNet.uav[24] utilizationCountMissions 13
scalar OsgEarthNet.uav[24] utilizationCountManeuversMission 143
scalar OsgEarthNet.uav[24] utilizationCountManeuversMaintenance 26
scalar OsgEarthNet.uav[24] utilizationCountChargeState 13
scalar OsgEarthNet.uav[24] utilizationCountOverdrawnAfterMission 0
scalar OsgEarthNet.uav[24] utilizationCountIdleState 11
scalar OsgEarthNet.uav[24] utilizationFail 0
scalar OsgEarthNet.uav[24] simulationTime 259200
scalar OsgEarthNet.uav[25] utilizationSecMission 17851.157233076
scalar OsgEarthNet.uav[25] utilizationSecMaintenance 5193.372639952
scalar OsgEarthNet.uav[25] utilizationSecCharge 83320
scalar OsgEarthNet.uav[25] utilizationSecIdle 152835.46912697
scalar OsgEarthNet.uav[25] utilizationEnergyMission 82680.618640006
scalar OsgEarthNet.uav[25] utilizationEnergyMaintenance 23770.465595245
scalar OsgEarthNet.uav[25] utilizationEnergyCharge 104738.21826172
scalar OsgEarthNet.uav[25] utilizationEnergyOverdrawMission 0
scalar OsgEarthNet.uav[25] utilizationEnergyOverdrawMaintenance 0
scalar OsgEarthNet.uav[25] utilizationCountMissions 22
scalar OsgEarthNet.uav[25] utilizationCountManeuversMission 300
scalar OsgEarthNet.uav[25] utilizationCountManeuversMaintenance 45
scalar OsgEarthNet.uav[25] utilizationCountChargeState 22
scalar OsgEarthNet.uav[25] utilizationCountOverdrawnAfterMission 0
scalar OsgEarthNet.uav[25] utilizationCountIdleState 23
scalar OsgEarthNet.uav[25] utilizationFail 0
scalar OsgEarthNet.uav[25] simulationTime 259200
scalar OsgEarthNet.uav[26] utilizationSecMission 13510.896572783
scalar OsgEarthNet.uav[26] utilizationSecMaintenance 4098.4319102301
scalar OsgEarthNet.uav[26] utilizationSecCharge 66500
scalar OsgEarthNet.uav[26] utilizationSecIdle 175090.67051699
scalar OsgEarthNet.uav[26] utilizationEnergyMission 63298.440750122
scalar OsgEarthNet.uav[26] utilizationEnergyMaintenance 19557.20318985
scalar OsgEarthNet.uav[26] utilizationEnergyCharge 82789.759765625
scalar OsgEarthNet.uav[26] utilizationEnergyOverdrawMission 0
scalar OsgEarthNet.uav[26] utilizationEnergyOverdrawMaintenance 0
scalar OsgEarthNet.uav[26] utilizationCountMissions 18
scalar OsgEarthNet.uav[26] utilizationCountManeuversMission 205
scalar OsgEarthNet.uav[26] utilizationCountManeuversMaintenance 36
scalar OsgEarthNet.uav[26] utilizationCountChargeState 18
scalar OsgEarthNet.uav[26] utilizationCountOverdrawnAfterMission 0
scalar OsgEarthNet.uav[26] utilizationCountIdleState 19
scalar OsgEarthNet.uav[26] utilizationFail 0
scalar OsgEarthNet.uav[26] simulationTime 259200
scalar OsgEarthNet.uav[27] utilizationSecMission 2643.7449294412
scalar OsgEarthNet.uav[27] utilizationSecMaintenance 1432.8931660899
scalar OsgEarthNet.uav[27] utilizationSecCharge 15320
scalar OsgEarthNet.uav[27] utilizationSecIdle 239803.36090447
scalar OsgEarthNet.uav[27] utilizationEnergyMission 12077.524749756
scalar OsgEarthNet.uav[27] utilizationEnergyMaintenance 7264.566696167
scalar OsgEarthNet.uav[27] utilizationEnergyCharge 19342.093261719
scalar OsgEarthNet.uav[27] utilizationEnergyOverdrawMission 0
scalar OsgEarthNet.uav[27] utilizationEnergyOverdrawMaintenance 0
scalar OsgEarthNet.uav[27] utilizationCountMissions 4
scalar OsgEarthNet.uav[27] utilizationCountManeuversMission 40
scalar OsgEarthNet.uav[27] utilizationCountManeuversMaintenance 8
scalar OsgEarthNet.uav[27] utilizationCountChargeState 4
scalar OsgEarthNet.uav[27] utilizationCountOverdrawnAfterMission 0
scalar OsgEarthNet.uav[27] utilizationCountIdleState 5
scalar OsgEarthNet.uav[27] utilizationFail 0
scalar OsgEarthNet.uav[27] simulationTime 259200
scalar OsgEarthNet.uav[28] utilizationSecMission 13737.735852745
scalar OsgEarthNet.uav[28] utilizationSecMaintenance 4917.4197199408
scalar OsgEarthNet.uav[28] utilizationSecCharge 68130
scalar OsgEarthNet.uav[28] utilizationSecIdle 172414.84342731
scalar OsgEarthNet.uav[28] utilizationEnergyMission 63844.577713013
scalar OsgEarthNet.uav[28] utilizationEnergyMaintenance 22260.528247833
scalar OsgEarthNet.uav[28] utilizationEnergyCharge 85569.381347656
scalar OsgEarthNet.uav[28] utilizationEnergyOverdrawMission 0
scalar OsgEarthNet.uav[28] utilizationEnergyOverdrawMaintenance 0
scalar OsgEarthNet.uav[28] utilizationCountMissions 18
scalar OsgEarthNet.uav[28] utilizationCountManeuversMission 241
scalar OsgEarthNet.uav[28] utilizationCountManeuversMaintenance 36
scalar OsgEarthNet.uav[28] utilizationCountChargeState 18
scalar OsgEarthNet.uav[28] utilizationCountOverdrawnAfterMission 0
scalar OsgEarthNet.uav[28] utilizationCountIdleState 19
scalar OsgEarthNet.uav[28] utilizationFail 0
scalar OsgEarthNet.uav[28] simulationTime 259200
scalar OsgEarthNet.uav[29] utilizationSecMission 12843.720176749
scalar OsgEarthNet.uav[29] utilizationSecMaintenance 4000.4855344696
scalar OsgEarthNet.uav[29] utilizationSecCharge 61027.090310836
scalar OsgEarthNet.uav[29] utilizationSecIdle 181328.70297794
scalar OsgEarthNet.uav[29] utilizationEnergyMission 59624.236671448
scalar OsgEarthNet.uav[29] utilizationEnergyMaintenance 19541.111503601
scalar OsgEarthNet.uav[29] utilizationEnergyCharge 76996.015136719
scalar OsgEarthNet.uav[29] utilizationEnergyOverdrawMission 0
scalar OsgEarthNet.uav[29] utilizationEnergyOverdrawMaintenance 0
scalar OsgEarthNet.uav[29] utilizationCountMissions 17
scalar OsgEarthNet.uav[29] utilizationCountManeuversMission 197
scalar OsgEarthNet.uav[29] utilizationCountManeuversMaintenance 34
scalar OsgEarthNet.uav[29] utilizationCountChargeState 17
scalar OsgEarthNet.uav[29] utilizationCountOverdrawnAfterMission 0
scalar OsgEarthNet.uav[29] utilizationCountIdleState 17
scalar OsgEarthNet.uav[29] utilizationFail 0
scalar OsgEarthNet.uav[29] simulationTime 259200
scalar OsgEarthNet.uav[30] utilizationSecMission 3645.2809336319
scalar OsgEarthNet.uav[30] utilizationSecMaintenance 1483.3525865484
scalar OsgEarthNet.uav[30] utilizationSecCharge 19050
scalar OsgEarthNet.uav[30] utilizationSecIdle 235021.36547982
scalar OsgEarthNet.uav[30] utilizationEnergyMission 17124.111991882
scalar OsgEarthNet.uav[30] utilizationEnergyMaintenance 6898.675289154
scalar OsgEarthNet.uav[30] utilizationEnergyCharge 24022.790527344
scalar OsgEarthNet.uav[30] utilizationEnergyOverdrawMission 0
scalar OsgEarthNet.uav[30] utilizationEnergyOverdrawMaintenance 0
scalar OsgEarthNet.uav[30] utilizationCountMissions 5
scalar OsgEarthNet.uav[30] utilizationCountManeuversMission 56
scalar OsgEarthNet.uav[30] utilizationCountManeuversMaintenance 10
scalar OsgEarthNet.uav[30] utilizationCountChargeState 5
scalar OsgEarthNet.uav[30] utilizationCountOverdrawnAfterMission 0
scalar OsgEarthNet.uav[30] utilizationCountIdleState 6
scalar OsgEarthNet.uav[30] utilizationFail 0
scalar OsgEarthNet.uav[30] simulationTime 259200
scalar OsgEarthNet.uav[31] utilizationSecMission 8085.8218112129
scalar OsgEarthNet.uav[31] utilizationSecMaintenance 3986.2919021051
scalar OsgEarthNet.uav[31] utilizationSecCharge 45100
scalar OsgEarthNet.uav[31] utilizationSecIdle 202027.88528668
scalar OsgEarthNet.uav[31] utilizationEnergyMission 37567.34046936
scalar OsgEarthNet.uav[31] utilizationEnergyMaintenance 19105.645870209
scalar OsgEarthNet.uav[31] utilizationEnergyCharge 56672.986328125
scalar OsgEarthNet.uav[31] utilizationEnergyOverdrawMission 0
scalar OsgEarthNet.uav[31] utilizationEnergyOverdrawMaintenance 0
scalar OsgEarthNet.uav[31] utilizationCountMissions 12
scalar OsgEarthNet.uav[31] utilizationCountManeuversMission 137
scalar OsgEarthNet.uav[31] utilizationCountManeuversMaintenance 24
scalar OsgEarthNet.uav[31] utilizationCountChargeState 12
scalar OsgEarthNet.uav[31] utilizationCountOverdrawnAfterMission 0
scalar OsgEarthNet.uav[31] utilizationCountIdleState 12
scalar OsgEarthNet.uav[31] utilizationFail 0
scalar OsgEarthNet.uav[31] simulationTime 259200
scalar OsgEarthNet.uav[32] utilizationSecMission 24907.439142826
scalar OsgEarthNet.uav[32] utilizationSecMaintenance 8235.1337232574
scalar OsgEarthNet.uav[32] utilizationSecCharge 120945.75308453
scalar OsgEarthNet.uav[32] utilizationSecIdle 105111.67304938
scalar OsgEarthNet.uav[32] utilizationEnergyMission 114589.01602173
scalar OsgEarthNet.uav[32] utilizationEnergyMaintenance 37557.097316742
scalar OsgEarthNet.uav[32] utilizationEnergyCharge 152115.19628906
scalar OsgEarthNet.uav[32] utilizationEnergyOverdrawMission 0
scalar OsgEarthNet.uav[32] utilizationEnergyOverdrawMaintenance 0
scalar OsgEarthNet.uav[32] utilizationCountMissions 32
scalar OsgEarthNet.uav[32] utilizationCountManeuversMission 432
scalar OsgEarthNet.uav[32] utilizationCountManeuversMaintenance 64
scalar OsgEarthNet.uav[32] utilizationCountChargeState 32
scalar OsgEarthNet.uav[32] utilizationCountOverdrawnAfterMission 0
scalar OsgEarthNet.uav[32] utilizationCountIdleState 32
scalar OsgEarthNet.uav[32] utilizationFail 0
scalar OsgEarthNet.uav[32] simulationTime 259200
scalar OsgEarthNet.uav[33] utilizationSecMission 13628.395126462
scalar OsgEarthNet.uav[33] utilizationSecMaintenance 4136.3972934136
scalar OsgEarthNet.uav[33] utilizationSecCharge 65955.251297895
scalar OsgEarthNet.uav[33] utilizationSecIdle 175479.95528223
scalar OsgEarthNet.uav[33] utilizationEnergyMission 63165.952674866
scalar OsgEarthNet.uav[33] utilizationEnergyMaintenance 20006.219730377
scalar OsgEarthNet.uav[33] utilizationEnergyCharge 83064.356445312
scalar OsgEarthNet.uav[33] utilizationEnergyOverdrawMission 0
scalar OsgEarthNet.uav[33] utilizationEnergyOverdrawMaintenance 0
scalar OsgEarthNet.uav[33] utilizationCountMissions 18
scalar OsgEarthNet.uav[33] utilizationCountManeuversMission 205
scalar OsgEarthNet.uav[33] utilizationCountManeuversMaintenance 36
scalar OsgEarthNet.uav[33] utilizationCountChargeState 18
scalar OsgEarthNet.uav[33] utilizationCountOverdrawnAfterMission 0
scalar OsgEarthNet.uav[33] utilizationCountIdleState 18
scalar OsgEarthNet.uav[33] utilizationFail 0
scalar OsgEarthNet.uav[33] simulationTime 259200
scalar OsgEarthNet.uav[34] utilizationSecMission 10116.628908618
scalar OsgEarthNet.uav[34] utilizationSecMaintenance 5059.8791384878
scalar OsgEarthNet.uav[34] utilizationSecCharge 56540
scalar OsgEarthNet.uav[34] utilizationSecIdle 187483.49095289
scalar OsgEarthNet.uav[34] utilizationEnergyMission 46871.037315369
scalar OsgEarthNet.uav[34] utilizationEnergyMaintenance 24168.23348999
scalar OsgEarthNet.uav[34] utilizationEnergyCharge 71039.245117188
scalar OsgEarthNet.uav[34] utilizationEnergyOverdrawMission 0
scalar OsgEarthNet.uav[34] utilizationEnergyOverdrawMaintenance 0
scalar OsgEarthNet.uav[34] utilizationCountMissions 15
scalar OsgEarthNet.uav[34] utilizationCountManeuversMission 169
scalar OsgEarthNet.uav[34] utilizationCountManeuversMaintenance 30
scalar OsgEarthNet.uav[34] utilizationCountChargeState 15
scalar OsgEarthNet.uav[34] utilizationCountOverdrawnAfterMission 0
scalar OsgEarthNet.uav[34] utilizationCountIdleState 16
scalar OsgEarthNet.uav[34] utilizationFail 0
scalar OsgEarthNet.uav[34] simulationTime 259200
scalar OsgEarthNet.uav[35] utilizationSecMission 8744.3787275368
scalar OsgEarthNet.uav[35] utilizationSecMaintenance 3155.022620376
scalar OsgEarthNet.uav[35] utilizationSecCharge 44690
scalar OsgEarthNet.uav[35] utilizationSecIdle 202610.59765209
scalar OsgEarthNet.uav[35] utilizationEnergyMission 40534.344566345
scalar OsgEarthNet.uav[35] utilizationEnergyMaintenance 15141.56791687
scalar OsgEarthNet.uav[35] utilizationEnergyCharge 55675.914550781
scalar OsgEarthNet.uav[35] utilizationEnergyOverdrawMission 0
scalar OsgEarthNet.uav[35] utilizationEnergyOverdrawMaintenance 0
scalar OsgEarthNet.uav[35] utilizationCountMissions 12
scalar OsgEarthNet.uav[35] utilizationCountManeuversMission 133
scalar OsgEarthNet.uav[35] utilizationCountManeuversMaintenance 24
scalar OsgEarthNet.uav[35] utilizationCountChargeState 12
scalar OsgEarthNet.uav[35] utilizationCountOverdrawnAfterMission 0
scalar OsgEarthNet.uav[35] utilizationCountIdleState 13
scalar OsgEarthNet.uav[35] utilizationFail 0
scalar OsgEarthNet.uav[35] simulationTime 259200
scalar OsgEarthNet.uav[36] utilizationSecMission 10956.031995494
scalar OsgEarthNet.uav[36] utilizationSecMaintenance 3941.5261401843
scalar OsgEarthNet.uav[36] utilizationSecCharge 55760
scalar OsgEarthNet.uav[36] utilizationSecIdle 188542.44086432
scalar OsgEarthNet.uav[36] utilizationEnergyMission 50482.860160828
scalar OsgEarthNet.uav[36] utilizationEnergyMaintenance 19227.18536377
scalar OsgEarthNet.uav[36] utilizationEnergyCharge 69615.978515625
scalar OsgEarthNet.uav[36] utilizationEnergyOverdrawMission 0
scalar OsgEarthNet.uav[36] utilizationEnergyOverdrawMaintenance 0
scalar OsgEarthNet.uav[36] utilizationCountMissions 15
scalar OsgEarthNet.uav[36] utilizationCountManeuversMission 167
scalar OsgEarthNet.uav[36] utilizationCountManeuversMaintenance 30
scalar OsgEarthNet.uav[36] utilizationCountChargeState 15
scalar OsgEarthNet.uav[36] utilizationCountOverdrawnAfterMission 0
scalar OsgEarthNet.uav[36] utilizationCountIdleState 16
scalar OsgEarthNet.uav[36] utilizationFail 0
scalar OsgEarthNet.uav[36] simulationTime 259200
scalar OsgEarthNet.uav[37] utilizationSecMission 6149.5405476314
scalar OsgEarthNet.uav[37] utilizationSecMaintenance 3643.2192003189
scalar OsgEarthNet.uav[37] utilizationSecCharge 33004.660419381
scalar OsgEarthNet.uav[37] utilizationSecIdle 216402.57883267
scalar OsgEarthNet.uav[37] utilizationEnergyMission 28175.354652405
scalar OsgEarthNet.uav[37] utilizationEnergyMaintenance 16936.150566101
scalar OsgEarthNet.uav[37] utilizationEnergyCharge 41029.764648438
scalar OsgEarthNet.uav[37] utilizationEnergyOverdrawMission 0
scalar OsgEarthNet.uav[37] utilizationEnergyOverdrawMaintenance 0
scalar OsgEarthNet.uav[37] utilizationCountMissions 10
scalar OsgEarthNet.uav[37] utilizationCountManeuversMission 97
scalar OsgEarthNet.uav[37] utilizationCountManeuversMaintenance 20
scalar OsgEarthNet.uav[37] utilizationCountChargeState 10
scalar OsgEarthNet.uav[37] utilizationCountOverdrawnAfterMission 0
scalar OsgEarthNet.uav[37] utilizationCountIdleState 10
scalar OsgEarthNet.uav[37] utilizationFail 0
scalar OsgEarthNet.uav[37] simulationTime 259200
scalar OsgEarthNet.uav[38] utilizationSecMission 18486.292139044
scalar OsgEarthNet.uav[38] utilizationSecMaintenance 6171.694551754
scalar OsgEarthNet.uav[38] utilizationSecCharge 87840.717751066
scalar OsgEarthNet.uav[38] utilizationSecIdle 146701.29455814
scalar OsgEarthNet.uav[38] utilizationEnergyMission 86048.110271454
scalar OsgEarthNet.uav[38] utilizationEnergyMaintenance 28442.455364227
scalar OsgEarthNet.uav[38] utilizationEnergyCharge 110634.65612793
scalar OsgEarthNet.uav[38] utilizationEnergyOverdrawMission 0
scalar OsgEarthNet.uav[38] utilizationEnergyOverdrawMaintenance 0
scalar OsgEarthNet.uav[38] utilizationCountMissions 24
scalar OsgEarthNet.uav[38] utilizationCountManeuversMission 320
scalar OsgEarthNet.uav[38] utilizationCountManeuversMaintenance 48
scalar OsgEarthNet.uav[38] utilizationCountChargeState 24
scalar OsgEarthNet.uav[38] utilizationCountOverdrawnAfterMission 0
scalar OsgEarthNet.uav[38] utilizationCountIdleState 24
scalar OsgEarthNet.uav[38] utilizationFail 0
scalar OsgEarthNet.uav[38] simulationTime 259200
scalar OsgEarthNet.uav[39] utilizationSecMission 3797.316654693
scalar OsgEarthNet.uav[39] utilizationSecMaintenance 2265.3087936487
scalar OsgEarthNet.uav[39] utilizationSecCharge 22700
scalar OsgEarthNet.uav[39] utilizationSecIdle 230437.37355166
scalar OsgEarthNet.uav[39] utilizationEnergyMission 17636.941993713
scalar OsgEarthNet.uav[39] utilizationEnergyMaintenance 10924.396137238
scalar OsgEarthNet.uav[39] utilizationEnergyCharge 28561.333984375
scalar OsgEarthNet.uav[39] utilizationEnergyOverdrawMission 0
scalar OsgEarthNet.uav[39] utilizationEnergyOverdrawMaintenance 0
scalar OsgEarthNet.uav[39] utilizationCountMissions 6
scalar OsgEarthNet.uav[39] utilizationCountManeuversMission 61
scalar OsgEarthNet.uav[39] utilizationCountManeuversMaintenance 12
scalar OsgEarthNet.uav[39] utilizationCountChargeState 6
scalar OsgEarthNet.uav[39] utilizationCountOverdrawnAfterMission 0
scalar OsgEarthNet.uav[39] utilizationCountIdleState 7
scalar OsgEarthNet.uav[39] utilizationFail 0
scalar OsgEarthNet.uav[39] simulationTime 259200
scalar OsgEarthNet.uav[40] utilizationSecMission 8717.8428089653
scalar OsgEarthNet.uav[40] utilizationSecMaintenance 3393.2431008174
scalar OsgEarthNet.uav[40] utilizationSecCharge 44700
scalar OsgEarthNet.uav[40] utilizationSecIdle 202388.91309022
scalar OsgEarthNet.uav[40] utilizationEnergyMission 39991.242073059
scalar OsgEarthNet.uav[40] utilizationEnergyMaintenance 15938.213558197
scalar OsgEarthNet.uav[40] utilizationEnergyCharge 55893.594726562
scalar OsgEarthNet.uav[40] utilizationEnergyOverdrawMission 0
scalar OsgEarthNet.uav[40] utilizationEnergyOverdrawMaintenance 0
scalar OsgEarthNet.uav[40] utilizationCountMissions 12
scalar OsgEarthNet.uav[40] utilizationCountManeuversMission 133
scalar OsgEarthNet.uav[40] utilizationCountManeuversMaintenance 24
scalar OsgEarthNet.uav[40] utilizationCountChargeState 12
scalar OsgEarthNet.uav[40] utilizationCountOverdrawnAfterMission 0
scalar OsgEarthNet.uav[40] utilizationCountIdleState 13
scalar OsgEarthNet.uav[40] utilizationFail 0
scalar OsgEarthNet.uav[40] simulationTime 259200
scalar OsgEarthNet.uav[41] utilizationSecMission 5369.7826518508
scalar OsgEarthNet.uav[41] utilizationSecMaintenance 2559.2682446116
scalar OsgEarthNet.uav[41] utilizationSecCharge 30120
scalar OsgEarthNet.uav[41] utilizationSecIdle 221150.94810354
scalar OsgEarthNet.uav[41] utilizationEnergyMission 25289.13684082
scalar OsgEarthNet.uav[41] utilizationEnergyMaintenance 12458.152416229
scalar OsgEarthNet.uav[41] utilizationEnergyCharge 37747.282226562
scalar OsgEarthNet.uav[41] utilizationEnergyOverdrawMission 0
scalar OsgEarthNet.uav[41] utilizationEnergyOverdrawMaintenance 0
scalar OsgEarthNet.uav[41] utilizationCountMissions 8
scalar OsgEarthNet.uav[41] utilizationCountManeuversMission 90
scalar OsgEarthNet.uav[41] utilizationCountManeuversMaintenance 16
scalar OsgEarthNet.uav[41] utilizationCountChargeState 8
scalar OsgEarthNet.uav[41] utilizationCountOverdrawnAfterMission 0
scalar OsgEarthNet.uav[41] utilizationCountIdleState 8
scalar OsgEarthNet.uav[41] utilizationFail 0
scalar OsgEarthNet.uav[41] simulationTime 259200
scalar OsgEarthNet.uav[42] utilizationSecMission 23837.284328839
scalar OsgEarthNet.uav[42] utilizationSecMaintenance 7370.4267635666
scalar OsgEarthNet.uav[42] utilizationSecCharge 113680
scalar OsgEarthNet.uav[42] utilizationSecIdle 114312.28790759
scalar OsgEarthNet.uav[42] utilizationEnergyMission 109759.87388611
scalar OsgEarthNet.uav[42] utilizationEnergyMaintenance 33347.791629791
scalar OsgEarthNet.uav[42] utilizationEnergyCharge 142825.05908203
scalar OsgEarthNet.uav[42] utilizationEnergyOverdrawMission 0
scalar OsgEarthNet.uav[42] utilizationEnergyOverdrawMaintenance 0
scalar OsgEarthNet.uav[42] utilizationCountMissions 30
scalar OsgEarthNet.uav[42] utilizationCountManeuversMission 406
scalar OsgEarthNet.uav[42] utilizationCountManeuversMaintenance 60
scalar OsgEarthNet.uav[42] utilizationCountChargeState 30
scalar OsgEarthNet.uav[42] utilizationCountOverdrawnAfterMission 0
scalar OsgEarthNet.uav[42] utilizationCountIdleState 31
scalar OsgEarthNet.uav[42] utilizationFail 0
scalar OsgEarthNet.uav[42] simulationTime 259200
scalar OsgEarthNet.uav[43] utilizationSecMission 13224.845781369
scalar OsgEarthNet.uav[43] utilizationSecMaintenance 4791.9453187827
scalar OsgEarthNet.uav[43] utilizationSecCharge 66315.149492982
scalar OsgEarthNet.uav[43] utilizationSecIdle 174868.05840687
scalar OsgEarthNet.uav[43] utilizationEnergyMission 61172.251228332
scalar OsgEarthNet.uav[43] utilizationEnergyMaintenance 22626.893375397
scalar OsgEarthNet.uav[43] utilizationEnergyCharge 83558.805664062
scalar OsgEarthNet.uav[43] utilizationEnergyOverdrawMission 0
scalar OsgEarthNet.uav[43] utilizationEnergyOverdrawMaintenance 0
scalar OsgEarthNet.uav[43] utilizationCountMissions 18
scalar OsgEarthNet.uav[43] utilizationCountManeuversMission 204
scalar OsgEarthNet.uav[43] utilizationCountManeuversMaintenance 36
scalar OsgEarthNet.uav[43] utilizationCountChargeState 18
scalar OsgEarthNet.uav[43] utilizationCountOverdrawnAfterMission 0
scalar OsgEarthNet.uav[43] utilizationCountIdleState 18
scalar OsgEarthNet.uav[43] utilizationFail 0
scalar OsgEarthNet.uav[43] simulationTime 259200
scalar OsgEarthNet.uav[44] utilizationSecMission 9463.4645464215
scalar OsgEarthNet.uav[44] utilizationSecMaintenance 4396.2927974647
scalar OsgEarthNet.uav[44] utilizationSecCharge 51640
scalar OsgEarthNet.uav[44] utilizationSecIdle 193700.24165611
scalar OsgEarthNet.uav[44] utilizationEnergyMission 44813.54712677
scalar OsgEarthNet.uav[44] utilizationEnergyMaintenance 20834.321521759
scalar OsgEarthNet.uav[44] utilizationEnergyCharge 65647.869628906
scalar OsgEarthNet.uav[44] utilizationEnergyOverdrawMission 0
scalar OsgEarthNet.uav[44] utilizationEnergyOverdrawMaintenance 0
scalar OsgEarthNet.uav[44] utilizationCountMissions 14
scalar OsgEarthNet.uav[44] utilizationCountManeuversMission 164
scalar OsgEarthNet.uav[44] utilizationCountManeuversMaintenance 28
scalar OsgEarthNet.uav[44] utilizationCountChargeState 14
scalar OsgEarthNet.uav[44] utilizationCountOverdrawnAfterMission 0
scalar OsgEarthNet.uav[44] utilizationCountIdleState 10
scalar OsgEarthNet.uav[44] utilizationFail 0
scalar OsgEarthNet.uav[44] simulationTime 259200
scalar OsgEarthNet.uav[45] utilizationSecMission 29652.807655185
scalar OsgEarthNet.uav[45] utilizationSecMaintenance 9554.1687902177
scalar OsgEarthNet.uav[45] utilizationSecCharge 142970
scalar OsgEarthNet.uav[45] utilizationSecIdle 77023.022554597
scalar OsgEarthNet.uav[45] utilizationEnergyMission 136391.35617996
scalar OsgEarthNet.uav[45] utilizationEnergyMaintenance 42729.134437561
scalar OsgEarthNet.uav[45] utilizationEnergyCharge 179027.54541016
scalar OsgEarthNet.uav[45] utilizationEnergyOverdrawMission 0
scalar OsgEarthNet.uav[45] utilizationEnergyOverdrawMaintenance 0
scalar OsgEarthNet.uav[45] utilizationCountMissions 38
scalar OsgEarthNet.uav[45] utilizationCountManeuversMission 512
scalar OsgEarthNet.uav[45] utilizationCountManeuversMaintenance 75
scalar OsgEarthNet.uav[45] utilizationCountChargeState 38
scalar OsgEarthNet.uav[45] utilizationCountOverdrawnAfterMission 0
scalar OsgEarthNet.uav[45] utilizationCountIdleState 39
scalar OsgEarthNet.uav[45] utilizationFail 0
scalar OsgEarthNet.uav[45] simulationTime 259200
scalar OsgEarthNet.uav[46] utilizationSecMission 11184.836518581
scalar OsgEarthNet.uav[46] utilizationSecMaintenance 3500.051791057
scalar OsgEarthNet.uav[46] utilizationSecCharge 55020
scalar OsgEarthNet.uav[46] utilizationSecIdle 189495.11069036
scalar OsgEarthNet.uav[46] utilizationEnergyMission 51846.521316528
scalar OsgEarthNet.uav[46] utilizationEnergyMaintenance 16704.088367462
scalar OsgEarthNet.uav[46] utilizationEnergyCharge 68413.669921875
scalar OsgEarthNet.uav[46] utilizationEnergyOverdrawMission 0
scalar OsgEarthNet.uav[46] utilizationEnergyOverdrawMaintenance 0
scalar OsgEarthNet.uav[46] utilizationCountMissions 15
scalar OsgEarthNet.uav[46] utilizationCountManeuversMission 169
scalar OsgEarthNet.uav[46] utilizationCountManeuversMaintenance 29
scalar OsgEarthNet.uav[46] utilizationCountChargeState 15
scalar OsgEarthNet.uav[46] utilizationCountOverdrawnAfterMission 0
scalar OsgEarthNet.uav[46] utilizationCountIdleState 15
scalar OsgEarthNet.uav[46] utilizationFail 0
scalar OsgEarthNet.uav[46] simulationTime 259200
scalar OsgEarthNet.uav[47] utilizationSecMission 5955.8399694445
scalar OsgEarthNet.uav[47] utilizationSecMaintenance 3022.1843697751
scalar OsgEarthNet.uav[47] utilizationSecCharge 32860
scalar OsgEarthNet.uav[47] utilizationSecIdle 217361.97466078
scalar OsgEarthNet.uav[47] utilizationEnergyMission 27183.446601868
scalar OsgEarthNet.uav[47] utilizationEnergyMaintenance 14279.508842468
scalar OsgEarthNet.uav[47] utilizationEnergyCharge 41462.977050781
scalar OsgEarthNet.uav[47] utilizationEnergyOverdrawMission 0
scalar OsgEarthNet.uav[47] utilizationEnergyOverdrawMaintenance 0
scalar OsgEarthNet.uav[47] utilizationCountMissions 9
scalar OsgEarthNet.uav[47] utilizationCountManeuversMission 97
scalar OsgEarthNet.uav[47] utilizationCountManeuversMaintenance 18
scalar OsgEarthNet.uav[47] utilizationCountChargeState 9
scalar OsgEarthNet.uav[47] utilizationCountOverdrawnAfterMission 0
scalar OsgEarthNet.uav[47] utilizationCountIdleState 8
scalar OsgEarthNet.uav[47] utilizationFail 0
scalar OsgEarthNet.uav[47] simulationTime 259200
scalar OsgEarthNet.uav[48] utilizationSecMission 22874.507619664
scalar OsgEarthNet.uav[48] utilizationSecMaintenance 7718.2560035939
scalar OsgEarthNet.uav[48] utilizationSecCharge 110405.00964799
scalar OsgEarthNet.uav[48] utilizationSecIdle 118202.22572875
scalar OsgEarthNet.uav[48] utilizationEnergyMission 106189.95157623
scalar OsgEarthNet.uav[48] utilizationEnergyMaintenance 35230.033821106
scalar OsgEarthNet.uav[48] utilizationEnergyCharge 139105.15649414
scalar OsgEarthNet.uav[48] utilizationEnergyOverdrawMission 0
scalar OsgEarthNet.uav[48] utilizationEnergyOverdrawMaintenance 0
scalar OsgEarthNet.uav[48] utilizationCountMissions 30
scalar OsgEarthNet.uav[48] utilizationCountManeuversMission 398
scalar OsgEarthNet.uav[48] utilizationCountManeuversMaintenance 60
scalar OsgEarthNet.uav[48] utilizationCountChargeState 30
scalar OsgEarthNet.uav[48] utilizationCountOverdrawnAfterMission 0
scalar OsgEarthNet.uav[48] utilizationCountIdleState 30
scalar OsgEarthNet.uav[48] utilizationFail 0
scalar OsgEarthNet.uav[48] simulationTime 259200
scalar OsgEarthNet.uav[49] utilizationSecMission 15706.746375947
scalar OsgEarthNet.uav[49] utilizationSecMaintenance 4864.5736880818
scalar OsgEarthNet.uav[49] utilizationSecCharge 77040
scalar OsgEarthNet.uav[49] utilizationSecIdle 161588.67893597
scalar OsgEarthNet.uav[49] utilizationEnergyMission 71731.925994873
scalar OsgEarthNet.uav[49] utilizationEnergyMaintenance 23989.137294769
scalar OsgEarthNet.uav[49] utilizationEnergyCharge 95721.084472656
scalar OsgEarthNet.uav[49] utilizationEnergyOverdrawMission 0
scalar OsgEarthNet.uav[49] utilizationEnergyOverdrawMaintenance 0
scalar OsgEarthNet.uav[49] utilizationCountMissions 21
scalar OsgEarthNet.uav[49] utilizationCountManeuversMission 240
scalar OsgEarthNet.uav[49] utilizationCountManeuversMaintenance 42
scalar OsgEarthNet.uav[49] utilizationCountChargeState 21
scalar OsgEarthNet.uav[49] utilizationCountOverdrawnAfterMission 0
scalar OsgEarthNet.uav[49] utilizationCountIdleState 22
scalar OsgEarthNet.uav[49] utilizationFail 0
scalar OsgEarthNet.uav[49] simulationTime 259200
scalar OsgEarthNet.uav[50] utilizationSecMission 25161.980810452
scalar OsgEarthNet.uav[50] utilizationSecMaintenance 7416.0181895483
scalar OsgEarthNet.uav[50] utilizationSecCharge 121400
scalar OsgEarthNet.uav[50] utilizationSecIdle 105222
scalar OsgEarthNet.uav[50] utilizationEnergyMission 115951.5244947
scalar OsgEarthNet.uav[50] utilizationEnergyMaintenance 35883.57086204
scalar OsgEarthNet.uav[50] utilizationEnergyCharge 151013.64990234
scalar OsgEarthNet.uav[50] utilizationEnergyOverdrawMission 0
scalar OsgEarthNet.uav[50] utilizationEnergyOverdrawMaintenance 0
scalar OsgEarthNet.uav[50] utilizationCountMissions 33
scalar OsgEarthNet.uav[50] utilizationCountManeuversMission 385
scalar OsgEarthNet.uav[50] utilizationCountManeuversMaintenance 66
scalar OsgEarthNet.uav[50] utilizationCountChargeState 33
scalar OsgEarthNet.uav[50] utilizationCountOverdrawnAfterMission 0
scalar OsgEarthNet.uav[50] utilizationCountIdleState 34
scalar OsgEarthNet.uav[50] utilizationFail 0
scalar OsgEarthNet.uav[50] simulationTime 259200
scalar OsgEarthNet.uav[51] utilizationSecMission 5251.9718504134
scalar OsgEarthNet.uav[51] utilizationSecMaintenance 2597.6614948173
scalar OsgEarthNet.uav[51] utilizationSecCharge 29550
scalar OsgEarthNet.uav[51] utilizationSecIdle 221800.36565477
scalar OsgEarthNet.uav[51] utilizationEnergyMission 24594.326553345
scalar OsgEarthNet.uav[51] utilizationEnergyMaintenance 12932.406749725
scalar OsgEarthNet.uav[51] utilizationEnergyCharge 37526.735351562
scalar OsgEarthNet.uav[51] utilizationEnergyOverdrawMission 0
scalar OsgEarthNet.uav[51] utilizationEnergyOverdrawMaintenance 0
scalar OsgEarthNet.uav[51] utilizationCountMissions 8
scalar OsgEarthNet.uav[51] utilizationCountManeuversMission 88
scalar OsgEarthNet.uav[51] utilizationCountManeuversMaintenance 16
scalar OsgEarthNet.uav[51] utilizationCountChargeState 8
scalar OsgEarthNet.uav[51] utilizationCountOverdrawnAfterMission 0
scalar OsgEarthNet.uav[51] utilizationCountIdleState 6
scalar OsgEarthNet.uav[51] utilizationFail 0
scalar OsgEarthNet.uav[51] simulationTime 259200
scalar OsgEarthNet.uav[52] utilizationSecMission 21613.281444876
scalar OsgEarthNet.uav[52] utilizationSecMaintenance 7205.5890134612
scalar OsgEarthNet.uav[52] utilizationSecCharge 106020
scalar OsgEarthNet.uav[52] utilizationSecIdle 124361.12854166
scalar OsgEarthNet.uav[52] utilizationEnergyMission 99655.538650513
scalar OsgEarthNet.uav[52] utilizationEnergyMaintenance 33357.788967133
scalar OsgEarthNet.uav[52] utilizationEnergyCharge 133261.79443359
scalar OsgEarthNet.uav[52] utilizationEnergyOverdrawMission 0
scalar OsgEarthNet.uav[52] utilizationEnergyOverdrawMaintenance 0
scalar OsgEarthNet.uav[52] utilizationCountMissions 28
scalar OsgEarthNet.uav[52] utilizationCountManeuversMission 376
scalar OsgEarthNet.uav[52] utilizationCountManeuversMaintenance 56
scalar OsgEarthNet.uav[52] utilizationCountChargeState 28
scalar OsgEarthNet.uav[52] utilizationCountOverdrawnAfterMission 0
scalar OsgEarthNet.uav[52] utilizationCountIdleState 29
scalar OsgEarthNet.uav[52] utilizationFail 0
scalar OsgEarthNet.uav[52] simulationTime 259200
scalar OsgEarthNet.uav[53] utilizationSecMission 7610.4106340312
scalar OsgEarthNet.uav[53] utilizationSecMaintenance 3410.2673299694
scalar OsgEarthNet.uav[53] utilizationSecCharge 40730
scalar OsgEarthNet.uav[53] utilizationSecIdle 207449.321036
scalar OsgEarthNet.uav[53] utilizationEnergyMission 35377.201965332
scalar OsgEarthNet.uav[53] utilizationEnergyMaintenance 15994.941104889
scalar OsgEarthNet.uav[53] utilizationEnergyCharge 51247.035644531
scalar OsgEarthNet.uav[53] utilizationEnergyOverdrawMission 0
scalar OsgEarthNet.uav[53] utilizationEnergyOverdrawMaintenance 0
scalar OsgEarthNet.uav[53] utilizationCountMissions 11
scalar OsgEarthNet.uav[53] utilizationCountManeuversMission 124
scalar OsgEarthNet.uav[53] utilizationCountManeuversMaintenance 22
scalar OsgEarthNet.uav[53] utilizationCountChargeState 11
scalar OsgEarthNet.uav[53] utilizationCountOverdrawnAfterMission 0
scalar OsgEarthNet.uav[53] utilizationCountIdleState 11
scalar OsgEarthNet.uav[53] utilizationFail 0
scalar OsgEarthNet.uav[53] simulationTime 259200
scalar OsgEarthNet.uav[54] utilizationSecMission 10295.082190069
scalar OsgEarthNet.uav[54] utilizationSecMaintenance 5335.3055825093
scalar OsgEarthNet.uav[54] utilizationSecCharge 58030
scalar OsgEarthNet.uav[54] utilizationSecIdle 185539.61122742
scalar OsgEarthNet.uav[54] utilizationEnergyMission 48403.914657593
scalar OsgEarthNet.uav[54] utilizationEnergyMaintenance 25296.501110077
scalar OsgEarthNet.uav[54] utilizationEnergyCharge 73700.447753906
scalar OsgEarthNet.uav[54] utilizationEnergyOverdrawMission 0
scalar OsgEarthNet.uav[54] utilizationEnergyOverdrawMaintenance 0
scalar OsgEarthNet.uav[54] utilizationCountMissions 16
scalar OsgEarthNet.uav[54] utilizationCountManeuversMission 175
scalar OsgEarthNet.uav[54] utilizationCountManeuversMaintenance 32
scalar OsgEarthNet.uav[54] utilizationCountChargeState 16
scalar OsgEarthNet.uav[54] utilizationCountOverdrawnAfterMission 0
scalar OsgEarthNet.uav[54] utilizationCountIdleState 11
scalar OsgEarthNet.uav[54] utilizationFail 0
scalar OsgEarthNet.uav[54] simulationTime 259200
scalar OsgEarthNet.uav[55] utilizationSecMission 25177.480823805
scalar OsgEarthNet.uav[55] utilizationSecMaintenance 8172.1447248859
scalar OsgEarthNet.uav[55] utilizationSecCharge 121900
scalar OsgEarthNet.uav[55] utilizationSecIdle 103950.37345131
scalar OsgEarthNet.uav[55] utilizationEnergyMission 117828.30332729
scalar OsgEarthNet.uav[55] utilizationEnergyMaintenance 38147.773784637
scalar OsgEarthNet.uav[55] utilizationEnergyCharge 153327.04296875
scalar OsgEarthNet.uav[55] utilizationEnergyOverdrawMission 0
scalar OsgEarthNet.uav[55] utilizationEnergyOverdrawMaintenance 0
scalar OsgEarthNet.uav[55] utilizationCountMissions 32
scalar OsgEarthNet.uav[55] utilizationCountManeuversMission 436
scalar OsgEarthNet.uav[55] utilizationCountManeuversMaintenance 65
scalar OsgEarthNet.uav[55] utilizationCountChargeState 32
scalar OsgEarthNet.uav[55] utilizationCountOverdrawnAfterMission 0
scalar OsgEarthNet.uav[55] utilizationCountIdleState 33
scalar OsgEarthNet.uav[55] utilizationFail 0
scalar OsgEarthNet.uav[55] simulationTime 259200
scalar OsgEarthNet.uav[56] utilizationSecMission 11893.611411073
scalar OsgEarthNet.uav[56] utilizationSecMaintenance 4615.8245734896
scalar OsgEarthNet.uav[56] utilizationSecCharge 59190
scalar OsgEarthNet.uav[56] utilizationSecIdle 183500.56301544
scalar OsgEarthNet.uav[56] utilizationEnergyMission 55533.028006605
scalar OsgEarthNet.uav[56] utilizationEnergyMaintenance 22158.316753387
scalar OsgEarthNet.uav[56] utilizationEnergyCharge 73694.207519531
scalar OsgEarthNet.uav[56] utilizationEnergyOverdrawMission 0
scalar OsgEarthNet.uav[56] utilizationEnergyOverdrawMaintenance 0
scalar OsgEarthNet.uav[56] utilizationCountMissions 16
scalar OsgEarthNet.uav[56] utilizationCountManeuversMission 185
scalar OsgEarthNet.uav[56] utilizationCountManeuversMaintenance 33
scalar OsgEarthNet.uav[56] utilizationCountChargeState 16
scalar OsgEarthNet.uav[56] utilizationCountOverdrawnAfterMission 0
scalar OsgEarthNet.uav[56] utilizationCountIdleState 17
scalar OsgEarthNet.uav[56] utilizationFail 0
scalar OsgEarthNet.uav[56] simulationTime 259200
scalar OsgEarthNet.uav[57] utilizationSecMission 8698.4662385979
scalar OsgEarthNet.uav[57] utilizationSecMaintenance 4131.1406878316
scalar OsgEarthNet.uav[57] utilizationSecCharge 48120
scalar OsgEarthNet.uav[57] utilizationSecIdle 198250.39207357
scalar OsgEarthNet.uav[57] utilizationEnergyMission 40362.807945251
scalar OsgEarthNet.uav[57] utilizationEnergyMaintenance 20211.367195129
scalar OsgEarthNet.uav[57] utilizationEnergyCharge 60574.1875
scalar OsgEarthNet.uav[57] utilizationEnergyOverdrawMission 0
scalar OsgEarthNet.uav[57] utilizationEnergyOverdrawMaintenance 0
scalar OsgEarthNet.uav[57] utilizationCountMissions 13
scalar OsgEarthNet.uav[57] utilizationCountManeuversMission 147
scalar OsgEarthNet.uav[57] utilizationCountManeuversMaintenance 26
scalar OsgEarthNet.uav[57] utilizationCountChargeState 13
scalar OsgEarthNet.uav[57] utilizationCountOverdrawnAfterMission 0
scalar OsgEarthNet.uav[57] utilizationCountIdleState 10
scalar OsgEarthNet.uav[57] utilizationFail 0
scalar OsgEarthNet.uav[57] simulationTime 259200
scalar OsgEarthNet.uav[58] utilizationSecMission 22922.162680347
scalar OsgEarthNet.uav[58] utilizationSecMaintenance 6955.0581317669
scalar OsgEarthNet.uav[58] utilizationSecCharge 108753.3198398
scalar OsgEarthNet.uav[58] utilizationSecIdle 120569.45834809
scalar OsgEarthNet.uav[58] utilizationEnergyMission 106199.40084457
scalar OsgEarthNet.uav[58] utilizationEnergyMaintenance 31957.47151947
scalar OsgEarthNet.uav[58] utilizationEnergyCharge 137680.83544922
scalar OsgEarthNet.uav[58] utilizationEnergyOverdrawMission 0
scalar OsgEarthNet.uav[58] utilizationEnergyOverdrawMaintenance 0
scalar OsgEarthNet.uav[58] utilizationCountMissions 29
scalar OsgEarthNet.uav[58] utilizationCountManeuversMission 390
scalar OsgEarthNet.uav[58] utilizationCountManeuversMaintenance 58
scalar OsgEarthNet.uav[58] utilizationCountChargeState 29
scalar OsgEarthNet.uav[58] utilizationCountOverdrawnAfterMission 0
scalar OsgEarthNet.uav[58] utilizationCountIdleState 29
scalar OsgEarthNet.uav[58] utilizationFail 0
scalar OsgEarthNet.uav[58] simulationTime 259200
scalar OsgEarthNet.uav[59] utilizationSecMission 20390.993168239
scalar OsgEarthNet.uav[59] utilizationSecMaintenance 6316.9770989374
scalar OsgEarthNet.uav[59] utilizationSecCharge 99930
scalar OsgEarthNet.uav[59] utilizationSecIdle 132562.02873282
scalar OsgEarthNet.uav[59] utilizationEnergyMission 94411.829650879
scalar OsgEarthNet.uav[59] utilizationEnergyMaintenance 30360.960300446
scalar OsgEarthNet.uav[59] utilizationEnergyCharge 124606.87792969
scalar OsgEarthNet.uav[59] utilizationEnergyOverdrawMission 0
scalar OsgEarthNet.uav[59] utilizationEnergyOverdrawMaintenance 0
scalar OsgEarthNet.uav[59] utilizationCountMissions 27
scalar OsgEarthNet.uav[59] utilizationCountManeuversMission 310
scalar OsgEarthNet.uav[59] utilizationCountManeuversMaintenance 54
scalar OsgEarthNet.uav[59] utilizationCountChargeState 27
scalar OsgEarthNet.uav[59] utilizationCountOverdrawnAfterMission 0
scalar OsgEarthNet.uav[59] utilizationCountIdleState 28
scalar OsgEarthNet.uav[59] utilizationFail 0
scalar OsgEarthNet.uav[59] simulationTime 259200
scalar OsgEarthNet.uav[60] utilizationSecMission 19687.715573695
scalar OsgEarthNet.uav[60] utilizationSecMaintenance 7238.1884901028
scalar OsgEarthNet.uav[60] utilizationSecCharge 100530
scalar OsgEarthNet.uav[60] utilizationSecIdle 131744.0949362
scalar OsgEarthNet.uav[60] utilizationEnergyMission 91557.737487793
scalar OsgEarthNet.uav[60] utilizationEnergyMaintenance 34136.38899231
scalar OsgEarthNet.uav[60] utilizationEnergyCharge 125626.08105469
scalar OsgEarthNet.uav[60] utilizationEnergyOverdrawMission 0
scalar OsgEarthNet.uav[60] utilizationEnergyOverdrawMaintenance 0
scalar OsgEarthNet.uav[60] utilizationCountMissions 27
scalar OsgEarthNet.uav[60] utilizationCountManeuversMission 304
scalar OsgEarthNet.uav[60] utilizationCountManeuversMaintenance 54
scalar OsgEarthNet.uav[60] utilizationCountChargeState 27
scalar OsgEarthNet.uav[60] utilizationCountOverdrawnAfterMission 0
scalar OsgEarthNet.uav[60] utilizationCountIdleState 28
scalar OsgEarthNet.uav[60] utilizationFail 0
scalar OsgEarthNet.uav[60] simulationTime 259200
scalar OsgEarthNet.uav[61] utilizationSecMission 6811.660214141
scalar OsgEarthNet.uav[61] utilizationSecMaintenance 3494.7470351183
scalar OsgEarthNet.uav[61] utilizationSecCharge 37210
scalar OsgEarthNet.uav[61] utilizationSecIdle 211683.59175074
scalar OsgEarthNet.uav[61] utilizationEnergyMission 30600.739273071
scalar OsgEarthNet.uav[61] utilizationEnergyMaintenance 16516.466587067
scalar OsgEarthNet.uav[61] utilizationEnergyCharge 47117.203125
scalar OsgEarthNet.uav[61] utilizationEnergyOverdrawMission 0
scalar OsgEarthNet.uav[61] utilizationEnergyOverdrawMaintenance 0
scalar OsgEarthNet.uav[61] utilizationCountMissions 10
scalar OsgEarthNet.uav[61] utilizationCountManeuversMission 113
scalar OsgEarthNet.uav[61] utilizationCountManeuversMaintenance 20
scalar OsgEarthNet.uav[61] utilizationCountChargeState 10
scalar OsgEarthNet.uav[61] utilizationCountOverdrawnAfterMission 0
scalar OsgEarthNet.uav[61] utilizationCountIdleState 10
scalar OsgEarthNet.uav[61] utilizationFail 0
scalar OsgEarthNet.uav[61] simulationTime 259200
scalar OsgEarthNet.uav[62] utilizationSecMission 8127.1558210834
scalar OsgEarthNet.uav[62] utilizationSecMaintenance 2926.9246864614
scalar OsgEarthNet.uav[62] utilizationSecCharge 41249.676656835
scalar OsgEarthNet.uav[62] utilizationSecIdle 206896.24183562
scalar OsgEarthNet.uav[62] utilizationEnergyMission 37781.57901001
scalar OsgEarthNet.uav[62] utilizationEnergyMaintenance 14054.37128067
scalar OsgEarthNet.uav[62] utilizationEnergyCharge 51728.96875
scalar OsgEarthNet.uav[62] utilizationEnergyOverdrawMission 0
scalar OsgEarthNet.uav[62] utilizationEnergyOverdrawMaintenance 0
scalar OsgEarthNet.uav[62] utilizationCountMissions 11
scalar OsgEarthNet.uav[62] utilizationCountManeuversMission 126
scalar OsgEarthNet.uav[62] utilizationCountManeuversMaintenance 22
scalar OsgEarthNet.uav[62] utilizationCountChargeState 11
scalar OsgEarthNet.uav[62] utilizationCountOverdrawnAfterMission 0
scalar OsgEarthNet.uav[62] utilizationCountIdleState 11
scalar OsgEarthNet.uav[62] utilizationFail 0
scalar OsgEarthNet.uav[62] simulationTime 259200
scalar OsgEarthNet.uav[63] utilizationSecMission 14155.956904171
scalar OsgEarthNet.uav[63] utilizationSecMaintenance 4847.1401792435
scalar OsgEarthNet.uav[63] utilizationSecCharge 71220
scalar OsgEarthNet.uav[63] utilizationSecIdle 168976.90191659
scalar OsgEarthNet.uav[63] utilizationEnergyMission 65682.886474609
scalar OsgEarthNet.uav[63] utilizationEnergyMaintenance 23484.497123718
scalar OsgEarthNet.uav[63] utilizationEnergyCharge 89168.115234375
scalar OsgEarthNet.uav[63] utilizationEnergyOverdrawMission 0
scalar OsgEarthNet.uav[63] utilizationEnergyOverdrawMaintenance 0
scalar OsgEarthNet.uav[63] utilizationCountMissions 19
scalar OsgEarthNet.uav[63] utilizationCountManeuversMission 219
scalar OsgEarthNet.uav[63] utilizationCountManeuversMaintenance 38
scalar OsgEarthNet.uav[63] utilizationCountChargeState 19
scalar OsgEarthNet.uav[63] utilizationCountOverdrawnAfterMission 0
scalar OsgEarthNet.uav[63] utilizationCountIdleState 20
scalar OsgEarthNet.uav[63] utilizationFail 0
scalar OsgEarthNet.uav[63] simulationTime 259200
scalar OsgEarthNet.uav[64] utilizationSecMission 10520.026252936
scalar OsgEarthNet.uav[64] utilizationSecMaintenance 5687.1409213377
scalar OsgEarthNet.uav[64] utilizationSecCharge 59360
scalar OsgEarthNet.uav[64] utilizationSecIdle 183632.83182573
scalar OsgEarthNet.uav[64] utilizationEnergyMission 48736.236656189
scalar OsgEarthNet.uav[64] utilizationEnergyMaintenance 26744.644542694
scalar OsgEarthNet.uav[64] utilizationEnergyCharge 75480.876464844
scalar OsgEarthNet.uav[64] utilizationEnergyOverdrawMission 0
scalar OsgEarthNet.uav[64] utilizationEnergyOverdrawMaintenance 0
scalar OsgEarthNet.uav[64] utilizationCountMissions 16
scalar OsgEarthNet.uav[64] utilizationCountManeuversMission 180
scalar OsgEarthNet.uav[64] utilizationCountManeuversMaintenance 32
scalar OsgEarthNet.uav[64] utilizationCountChargeState 16
scalar OsgEarthNet.uav[64] utilizationCountOverdrawnAfterMission 0
scalar OsgEarthNet.uav[64] utilizationCountIdleState 15
scalar OsgEarthNet.uav[64] utilizationFail 0
scalar OsgEarthNet.uav[64] simulationTime 259200
scalar OsgEarthNet.uav[65] utilizationSecMission 25784.963485471
scalar OsgEarthNet.uav[65] utilizationSecMaintenance 9263.0910950068
[...]
scalar OsgEarthNet.uav[82] utilizationSecIdle 79694.497941176
scalar OsgEarthNet.uav[82] utilizationEnergyMission 139871.03038788
scalar OsgEarthNet.uav[82] utilizationEnergyMaintenance 41625.076068878
scalar OsgEarthNet.uav[82] utilizationEnergyCharge 176140.06005859
scalar OsgEarthNet.uav[82] utilizationEnergyOverdrawMission 0
scalar OsgEarthNet.uav[82] utilizationEnergyOverdrawMaintenance 0
scalar OsgEarthNet.uav[82] utilizationCountMissions 38
scalar OsgEarthNet.uav[82] utilizationCountManeuversMission 517
scalar OsgEarthNet.uav[82] utilizationCountManeuversMaintenance 76
scalar OsgEarthNet.uav[82] utilizationCountChargeState 38
scalar OsgEarthNet.uav[82] utilizationCountOverdrawnAfterMission 0
scalar OsgEarthNet.uav[82] utilizationCountIdleState 38
scalar OsgEarthNet.uav[82] utilizationFail 0
scalar OsgEarthNet.uav[82] simulationTime 259200
scalar OsgEarthNet.uav[83] utilizationSecMission 10071.233691198
scalar OsgEarthNet.uav[83] utilizationSecMaintenance 5029.9148718372
scalar OsgEarthNet.uav[83] utilizationSecCharge 55660
scalar OsgEarthNet.uav[83] utilizationSecIdle 188438.85043696
scalar OsgEarthNet.uav[83] utilizationEnergyMission 46835.241943359
scalar OsgEarthNet.uav[83] utilizationEnergyMaintenance 23615.644683838
scalar OsgEarthNet.uav[83] utilizationEnergyCharge 70450.896972656
scalar OsgEarthNet.uav[83] utilizationEnergyOverdrawMission 0
scalar OsgEarthNet.uav[83] utilizationEnergyOverdrawMaintenance 0
scalar OsgEarthNet.uav[83] utilizationCountMissions 15
scalar OsgEarthNet.uav[83] utilizationCountManeuversMission 171
scalar OsgEarthNet.uav[83] utilizationCountManeuversMaintenance 30
scalar OsgEarthNet.uav[83] utilizationCountChargeState 15
scalar OsgEarthNet.uav[83] utilizationCountOverdrawnAfterMission 0
scalar OsgEarthNet.uav[83] utilizationCountIdleState 13
scalar OsgEarthNet.uav[83] utilizationFail 0
scalar OsgEarthNet.uav[83] simulationTime 259200
scalar OsgEarthNet.uav[84] utilizationSecMission 9852.9284231859
scalar OsgEarthNet.uav[84] utilizationSecMaintenance 4303.5488280654
scalar OsgEarthNet.uav[84] utilizationSecCharge 52600
scalar OsgEarthNet.uav[84] utilizationSecIdle 192443.52174875
scalar OsgEarthNet.uav[84] utilizationEnergyMission 45440.224609375
scalar OsgEarthNet.uav[84] utilizationEnergyMaintenance 20377.744617462
scalar OsgEarthNet.uav[84] utilizationEnergyCharge 65609.317871094
scalar OsgEarthNet.uav[84] utilizationEnergyOverdrawMission 0
scalar OsgEarthNet.uav[84] utilizationEnergyOverdrawMaintenance 0
scalar OsgEarthNet.uav[84] utilizationCountMissions 14
scalar OsgEarthNet.uav[84] utilizationCountManeuversMission 154
scalar OsgEarthNet.uav[84] utilizationCountManeuversMaintenance 28
scalar OsgEarthNet.uav[84] utilizationCountChargeState 14
scalar OsgEarthNet.uav[84] utilizationCountOverdrawnAfterMission 0
scalar OsgEarthNet.uav[84] utilizationCountIdleState 15
scalar OsgEarthNet.uav[84] utilizationFail 0
scalar OsgEarthNet.uav[84] simulationTime 259200
scalar OsgEarthNet.uav[85] utilizationSecMission 26048.318556991
scalar OsgEarthNet.uav[85] utilizationSecMaintenance 8849.6445056731
scalar OsgEarthNet.uav[85] utilizationSecCharge 128920
scalar OsgEarthNet.uav[85] utilizationSecIdle 95382.035937336
scalar OsgEarthNet.uav[85] utilizationEnergyMission 120973.86257553
scalar OsgEarthNet.uav[85] utilizationEnergyMaintenance 40942.737640381
scalar OsgEarthNet.uav[85] utilizationEnergyCharge 162056.90722656
scalar OsgEarthNet.uav[85] utilizationEnergyOverdrawMission 0
scalar OsgEarthNet.uav[85] utilizationEnergyOverdrawMaintenance 0
scalar OsgEarthNet.uav[85] utilizationCountMissions 34
scalar OsgEarthNet.uav[85] utilizationCountManeuversMission 454
scalar OsgEarthNet.uav[85] utilizationCountManeuversMaintenance 68
scalar OsgEarthNet.uav[85] utilizationCountChargeState 34
scalar OsgEarthNet.uav[85] utilizationCountOverdrawnAfterMission 0
scalar OsgEarthNet.uav[85] utilizationCountIdleState 35
scalar OsgEarthNet.uav[85] utilizationFail 0
scalar OsgEarthNet.uav[85] simulationTime 259200
scalar OsgEarthNet.uav[86] utilizationSecMission 10369.482427077
scalar OsgEarthNet.uav[86] utilizationSecMaintenance 4663.0658931253
scalar OsgEarthNet.uav[86] utilizationSecCharge 56080
scalar OsgEarthNet.uav[86] utilizationSecIdle 188087.4506798
scalar OsgEarthNet.uav[86] utilizationEnergyMission 48082.243553162
scalar OsgEarthNet.uav[86] utilizationEnergyMaintenance 22748.369734048
scalar OsgEarthNet.uav[86] utilizationEnergyCharge 70653.875488281
scalar OsgEarthNet.uav[86] utilizationEnergyOverdrawMission 0
scalar OsgEarthNet.uav[86] utilizationEnergyOverdrawMaintenance 0
scalar OsgEarthNet.uav[86] utilizationCountMissions 15
scalar OsgEarthNet.uav[86] utilizationCountManeuversMission 165
scalar OsgEarthNet.uav[86] utilizationCountManeuversMaintenance 31
scalar OsgEarthNet.uav[86] utilizationCountChargeState 15
scalar OsgEarthNet.uav[86] utilizationCountOverdrawnAfterMission 0
scalar OsgEarthNet.uav[86] utilizationCountIdleState 15
scalar OsgEarthNet.uav[86] utilizationFail 0
scalar OsgEarthNet.uav[86] simulationTime 259200
scalar OsgEarthNet.uav[87] utilizationSecMission 10775.117790646
scalar OsgEarthNet.uav[87] utilizationSecMaintenance 4963.0995107438
scalar OsgEarthNet.uav[87] utilizationSecCharge 59320
scalar OsgEarthNet.uav[87] utilizationSecIdle 184141.78169861
scalar OsgEarthNet.uav[87] utilizationEnergyMission 51032.029586792
scalar OsgEarthNet.uav[87] utilizationEnergyMaintenance 23699.371612549
scalar OsgEarthNet.uav[87] utilizationEnergyCharge 74731.401367188
scalar OsgEarthNet.uav[87] utilizationEnergyOverdrawMission 0
scalar OsgEarthNet.uav[87] utilizationEnergyOverdrawMaintenance 0
scalar OsgEarthNet.uav[87] utilizationCountMissions 16
scalar OsgEarthNet.uav[87] utilizationCountManeuversMission 172
scalar OsgEarthNet.uav[87] utilizationCountManeuversMaintenance 32
scalar OsgEarthNet.uav[87] utilizationCountChargeState 16
scalar OsgEarthNet.uav[87] utilizationCountOverdrawnAfterMission 0
scalar OsgEarthNet.uav[87] utilizationCountIdleState 15
scalar OsgEarthNet.uav[87] utilizationFail 0
scalar OsgEarthNet.uav[87] simulationTime 259200
scalar OsgEarthNet.uav[88] utilizationSecMission 28097.60433598
scalar OsgEarthNet.uav[88] utilizationSecMaintenance 9880.6794426582
scalar OsgEarthNet.uav[88] utilizationSecCharge 137674.26495733
scalar OsgEarthNet.uav[88] utilizationSecIdle 83547.450264031
scalar OsgEarthNet.uav[88] utilizationEnergyMission 130728.04412842
scalar OsgEarthNet.uav[88] utilizationEnergyMaintenance 45212.99571991
scalar OsgEarthNet.uav[88] utilizationEnergyCharge 173575.37036133
scalar OsgEarthNet.uav[88] utilizationEnergyOverdrawMission 0
scalar OsgEarthNet.uav[88] utilizationEnergyOverdrawMaintenance 0
scalar OsgEarthNet.uav[88] utilizationCountMissions 37
scalar OsgEarthNet.uav[88] utilizationCountManeuversMission 495
scalar OsgEarthNet.uav[88] utilizationCountManeuversMaintenance 74
scalar OsgEarthNet.uav[88] utilizationCountChargeState 37
scalar OsgEarthNet.uav[88] utilizationCountOverdrawnAfterMission 0
scalar OsgEarthNet.uav[88] utilizationCountIdleState 37
scalar OsgEarthNet.uav[88] utilizationFail 0
scalar OsgEarthNet.uav[88] simulationTime 259200
scalar OsgEarthNet.uav[89] utilizationSecMission 9063.8518109559
scalar OsgEarthNet.uav[89] utilizationSecMaintenance 4010.3352205599
scalar OsgEarthNet.uav[89] utilizationSecCharge 48240
scalar OsgEarthNet.uav[89] utilizationSecIdle 197885.81196848
scalar OsgEarthNet.uav[89] utilizationEnergyMission 41788.192955017
scalar OsgEarthNet.uav[89] utilizationEnergyMaintenance 18799.050697327
scalar OsgEarthNet.uav[89] utilizationEnergyCharge 60587.233398438
scalar OsgEarthNet.uav[89] utilizationEnergyOverdrawMission 0
scalar OsgEarthNet.uav[89] utilizationEnergyOverdrawMaintenance 0
scalar OsgEarthNet.uav[89] utilizationCountMissions 13
scalar OsgEarthNet.uav[89] utilizationCountManeuversMission 147
scalar OsgEarthNet.uav[89] utilizationCountManeuversMaintenance 26
scalar OsgEarthNet.uav[89] utilizationCountChargeState 13
scalar OsgEarthNet.uav[89] utilizationCountOverdrawnAfterMission 0
scalar OsgEarthNet.uav[89] utilizationCountIdleState 13
scalar OsgEarthNet.uav[89] utilizationFail 0
scalar OsgEarthNet.uav[89] simulationTime 259200
scalar OsgEarthNet.uav[90] utilizationSecMission 12635.292514219
scalar OsgEarthNet.uav[90] utilizationSecMaintenance 6434.3205891523
scalar OsgEarthNet.uav[90] utilizationSecCharge 70790
scalar OsgEarthNet.uav[90] utilizationSecIdle 169340.38589663
scalar OsgEarthNet.uav[90] utilizationEnergyMission 58458.308906555
scalar OsgEarthNet.uav[90] utilizationEnergyMaintenance 30357.076595306
scalar OsgEarthNet.uav[90] utilizationEnergyCharge 88776.686523438
scalar OsgEarthNet.uav[90] utilizationEnergyOverdrawMission 0
scalar OsgEarthNet.uav[90] utilizationEnergyOverdrawMaintenance 0
scalar OsgEarthNet.uav[90] utilizationCountMissions 19
scalar OsgEarthNet.uav[90] utilizationCountManeuversMission 214
scalar OsgEarthNet.uav[90] utilizationCountManeuversMaintenance 38
scalar OsgEarthNet.uav[90] utilizationCountChargeState 19
scalar OsgEarthNet.uav[90] utilizationCountOverdrawnAfterMission 0
scalar OsgEarthNet.uav[90] utilizationCountIdleState 19
scalar OsgEarthNet.uav[90] utilizationFail 0
scalar OsgEarthNet.uav[90] simulationTime 259200
scalar OsgEarthNet.uav[91] utilizationSecMission 1332.6383257712
scalar OsgEarthNet.uav[91] utilizationSecMaintenance 763.20814540586
scalar OsgEarthNet.uav[91] utilizationSecCharge 7660
scalar OsgEarthNet.uav[91] utilizationSecIdle 249444.15252882
scalar OsgEarthNet.uav[91] utilizationEnergyMission 6228.5899658203
scalar OsgEarthNet.uav[91] utilizationEnergyMaintenance 3430.5528793335
scalar OsgEarthNet.uav[91] utilizationEnergyCharge 9659.1508789062
scalar OsgEarthNet.uav[91] utilizationEnergyOverdrawMission 0
scalar OsgEarthNet.uav[91] utilizationEnergyOverdrawMaintenance 0
scalar OsgEarthNet.uav[91] utilizationCountMissions 2
scalar OsgEarthNet.uav[91] utilizationCountManeuversMission 20
scalar OsgEarthNet.uav[91] utilizationCountManeuversMaintenance 4
scalar OsgEarthNet.uav[91] utilizationCountChargeState 2
scalar OsgEarthNet.uav[91] utilizationCountOverdrawnAfterMission 0
scalar OsgEarthNet.uav[91] utilizationCountIdleState 3
scalar OsgEarthNet.uav[91] utilizationFail 0
scalar OsgEarthNet.uav[91] simulationTime 259200
scalar OsgEarthNet.uav[92] utilizationSecMission 28651.950984408
scalar OsgEarthNet.uav[92] utilizationSecMaintenance 8668.1311557823
scalar OsgEarthNet.uav[92] utilizationSecCharge 135746.9930714
scalar OsgEarthNet.uav[92] utilizationSecIdle 86132.923788405
scalar OsgEarthNet.uav[92] utilizationEnergyMission 134255.635849
scalar OsgEarthNet.uav[92] utilizationEnergyMaintenance 40016.120052338
scalar OsgEarthNet.uav[92] utilizationEnergyCharge 171369.35058594
scalar OsgEarthNet.uav[92] utilizationEnergyOverdrawMission 0
scalar OsgEarthNet.uav[92] utilizationEnergyOverdrawMaintenance 0
scalar OsgEarthNet.uav[92] utilizationCountMissions 36
scalar OsgEarthNet.uav[92] utilizationCountManeuversMission 489
scalar OsgEarthNet.uav[92] utilizationCountManeuversMaintenance 72
scalar OsgEarthNet.uav[92] utilizationCountChargeState 36
scalar OsgEarthNet.uav[92] utilizationCountOverdrawnAfterMission 0
scalar OsgEarthNet.uav[92] utilizationCountIdleState 36
scalar OsgEarthNet.uav[92] utilizationFail 0
scalar OsgEarthNet.uav[92] simulationTime 259200
scalar OsgEarthNet.uav[93] utilizationSecMission 16049.333254258
scalar OsgEarthNet.uav[93] utilizationSecMaintenance 6803.1546538409
scalar OsgEarthNet.uav[93] utilizationSecCharge 85550
scalar OsgEarthNet.uav[93] utilizationSecIdle 150797.5110919
scalar OsgEarthNet.uav[93] utilizationEnergyMission 74726.412956238
scalar OsgEarthNet.uav[93] utilizationEnergyMaintenance 32781.281147003
scalar OsgEarthNet.uav[93] utilizationEnergyCharge 107509.91894531
scalar OsgEarthNet.uav[93] utilizationEnergyOverdrawMission 0
scalar OsgEarthNet.uav[93] utilizationEnergyOverdrawMaintenance 0
scalar OsgEarthNet.uav[93] utilizationCountMissions 23
scalar OsgEarthNet.uav[93] utilizationCountManeuversMission 255
scalar OsgEarthNet.uav[93] utilizationCountManeuversMaintenance 46
scalar OsgEarthNet.uav[93] utilizationCountChargeState 23
scalar OsgEarthNet.uav[93] utilizationCountOverdrawnAfterMission 0
scalar OsgEarthNet.uav[93] utilizationCountIdleState 22
scalar OsgEarthNet.uav[93] utilizationFail 0
scalar OsgEarthNet.uav[93] simulationTime 259200
scalar OsgEarthNet.uav[94] utilizationSecMission 9816.1997526394
scalar OsgEarthNet.uav[94] utilizationSecMaintenance 4172.7757597397
scalar OsgEarthNet.uav[94] utilizationSecCharge 52260
scalar OsgEarthNet.uav[94] utilizationSecIdle 192951.02348762
scalar OsgEarthNet.uav[94] utilizationEnergyMission 45491.934043884
scalar OsgEarthNet.uav[94] utilizationEnergyMaintenance 19738.588703156
scalar OsgEarthNet.uav[94] utilizationEnergyCharge 65230.518066406
scalar OsgEarthNet.uav[94] utilizationEnergyOverdrawMission 0
scalar OsgEarthNet.uav[94] utilizationEnergyOverdrawMaintenance 0
scalar OsgEarthNet.uav[94] utilizationCountMissions 14
scalar OsgEarthNet.uav[94] utilizationCountManeuversMission 155
scalar OsgEarthNet.uav[94] utilizationCountManeuversMaintenance 28
scalar OsgEarthNet.uav[94] utilizationCountChargeState 14
scalar OsgEarthNet.uav[94] utilizationCountOverdrawnAfterMission 0
scalar OsgEarthNet.uav[94] utilizationCountIdleState 15
scalar OsgEarthNet.uav[94] utilizationFail 0
scalar OsgEarthNet.uav[94] simulationTime 259200
scalar OsgEarthNet.uav[95] utilizationSecMission 26112.327873501
scalar OsgEarthNet.uav[95] utilizationSecMaintenance 8581.4958321321
scalar OsgEarthNet.uav[95] utilizationSecCharge 126373.45915322
scalar OsgEarthNet.uav[95] utilizationSecIdle 98132.716141148
scalar OsgEarthNet.uav[95] utilizationEnergyMission 120116.27089691
scalar OsgEarthNet.uav[95] utilizationEnergyMaintenance 38669.391654968
scalar OsgEarthNet.uav[95] utilizationEnergyCharge 159237.84863281
scalar OsgEarthNet.uav[95] utilizationEnergyOverdrawMission 0
scalar OsgEarthNet.uav[95] utilizationEnergyOverdrawMaintenance 0
scalar OsgEarthNet.uav[95] utilizationCountMissions 34
scalar OsgEarthNet.uav[95] utilizationCountManeuversMission 453
scalar OsgEarthNet.uav[95] utilizationCountManeuversMaintenance 68
scalar OsgEarthNet.uav[95] utilizationCountChargeState 34
scalar OsgEarthNet.uav[95] utilizationCountOverdrawnAfterMission 0
scalar OsgEarthNet.uav[95] utilizationCountIdleState 34
scalar OsgEarthNet.uav[95] utilizationFail 0
scalar OsgEarthNet.uav[95] simulationTime 259200
scalar OsgEarthNet.uav[96] utilizationSecMission 22021.123919897
scalar OsgEarthNet.uav[96] utilizationSecMaintenance 6800.798251232
scalar OsgEarthNet.uav[96] utilizationSecCharge 107290
scalar OsgEarthNet.uav[96] utilizationSecIdle 123088.07682887
scalar OsgEarthNet.uav[96] utilizationEnergyMission 102053.77273141
scalar OsgEarthNet.uav[96] utilizationEnergyMaintenance 33154.628944397
scalar OsgEarthNet.uav[96] utilizationEnergyCharge 133868.51513672
scalar OsgEarthNet.uav[96] utilizationEnergyOverdrawMission 0
scalar OsgEarthNet.uav[96] utilizationEnergyOverdrawMaintenance 0
scalar OsgEarthNet.uav[96] utilizationCountMissions 29
scalar OsgEarthNet.uav[96] utilizationCountManeuversMission 337
scalar OsgEarthNet.uav[96] utilizationCountManeuversMaintenance 59
scalar OsgEarthNet.uav[96] utilizationCountChargeState 29
scalar OsgEarthNet.uav[96] utilizationCountOverdrawnAfterMission 0
scalar OsgEarthNet.uav[96] utilizationCountIdleState 30
scalar OsgEarthNet.uav[96] utilizationFail 0
scalar OsgEarthNet.uav[96] simulationTime 259200
scalar OsgEarthNet.uav[97] utilizationSecMission 10809.076940772
scalar OsgEarthNet.uav[97] utilizationSecMaintenance 5316.7050733309
scalar OsgEarthNet.uav[97] utilizationSecCharge 59950
scalar OsgEarthNet.uav[97] utilizationSecIdle 183124.2169859
scalar OsgEarthNet.uav[97] utilizationEnergyMission 50033.512657165
scalar OsgEarthNet.uav[97] utilizationEnergyMaintenance 25850.632518768
scalar OsgEarthNet.uav[97] utilizationEnergyCharge 75884.126953125
scalar OsgEarthNet.uav[97] utilizationEnergyOverdrawMission 0
scalar OsgEarthNet.uav[97] utilizationEnergyOverdrawMaintenance 0
scalar OsgEarthNet.uav[97] utilizationCountMissions 16
scalar OsgEarthNet.uav[97] utilizationCountManeuversMission 181
scalar OsgEarthNet.uav[97] utilizationCountManeuversMaintenance 32
scalar OsgEarthNet.uav[97] utilizationCountChargeState 16
scalar OsgEarthNet.uav[97] utilizationCountOverdrawnAfterMission 0
scalar OsgEarthNet.uav[97] utilizationCountIdleState 15
scalar OsgEarthNet.uav[97] utilizationFail 0
scalar OsgEarthNet.uav[97] simulationTime 259200
scalar OsgEarthNet.uav[98] utilizationSecMission 28789.485430045
scalar OsgEarthNet.uav[98] utilizationSecMaintenance 8209.0532537592
scalar OsgEarthNet.uav[98] utilizationSecCharge 133550.00735748
scalar OsgEarthNet.uav[98] utilizationSecIdle 88651.452958717
scalar OsgEarthNet.uav[98] utilizationEnergyMission 133481.26637268
scalar OsgEarthNet.uav[98] utilizationEnergyMaintenance 38553.6447258
scalar OsgEarthNet.uav[98] utilizationEnergyCharge 168270.45996094
scalar OsgEarthNet.uav[98] utilizationEnergyOverdrawMission 0
scalar OsgEarthNet.uav[98] utilizationEnergyOverdrawMaintenance 0
scalar OsgEarthNet.uav[98] utilizationCountMissions 36
scalar OsgEarthNet.uav[98] utilizationCountManeuversMission 488
scalar OsgEarthNet.uav[98] utilizationCountManeuversMaintenance 72
scalar OsgEarthNet.uav[98] utilizationCountChargeState 36
scalar OsgEarthNet.uav[98] utilizationCountOverdrawnAfterMission 0
scalar OsgEarthNet.uav[98] utilizationCountIdleState 36
scalar OsgEarthNet.uav[98] utilizationFail 0
scalar OsgEarthNet.uav[98] simulationTime 259200
scalar OsgEarthNet.uav[99] utilizationSecMission 18752.2443094
scalar OsgEarthNet.uav[99] utilizationSecMaintenance 5970.8330799918
scalar OsgEarthNet.uav[99] utilizationSecCharge 92140
scalar OsgEarthNet.uav[99] utilizationSecIdle 142336.92161061
scalar OsgEarthNet.uav[99] utilizationEnergyMission 85601.211204529
scalar OsgEarthNet.uav[99] utilizationEnergyMaintenance 29097.352928162
scalar OsgEarthNet.uav[99] utilizationEnergyCharge 114698.56591797
scalar OsgEarthNet.uav[99] utilizationEnergyOverdrawMission 0
scalar OsgEarthNet.uav[99] utilizationEnergyOverdrawMaintenance 0
scalar OsgEarthNet.uav[99] utilizationCountMissions 25
scalar OsgEarthNet.uav[99] utilizationCountManeuversMission 286
scalar OsgEarthNet.uav[99] utilizationCountManeuversMaintenance 50
scalar OsgEarthNet.uav[99] utilizationCountChargeState 25
scalar OsgEarthNet.uav[99] utilizationCountOverdrawnAfterMission 0
scalar OsgEarthNet.uav[99] utilizationCountIdleState 26
scalar OsgEarthNet.uav[99] utilizationFail 0
scalar OsgEarthNet.uav[99] simulationTime 259200
scalar OsgEarthNet.cs[0] usedPower 9288.3806665333
scalar OsgEarthNet.cs[0] chargedPower 9288.3806665333
scalar OsgEarthNet.cs[0] chargedMobileNodes 2
scalar OsgEarthNet.cs[0] reservations 2
scalar OsgEarthNet.cs[1] usedPower 942010.22048142
scalar OsgEarthNet.cs[1] chargedPower 942010.22048142
scalar OsgEarthNet.cs[1] chargedMobileNodes 198
scalar OsgEarthNet.cs[1] reservations 201
scalar OsgEarthNet.cs[2] usedPower 3117517.7547097
scalar OsgEarthNet.cs[2] chargedPower 3117517.7547097
scalar OsgEarthNet.cs[2] chargedMobileNodes 650
scalar OsgEarthNet.cs[2] reservations 660
scalar OsgEarthNet.cs[3] usedPower 0
scalar OsgEarthNet.cs[3] chargedPower 0
scalar OsgEarthNet.cs[3] chargedMobileNodes 0
scalar OsgEarthNet.cs[3] reservations 0
scalar OsgEarthNet.cs[4] usedPower 637747.62827378
scalar OsgEarthNet.cs[4] chargedPower 637747.62827378
scalar OsgEarthNet.cs[4] chargedMobileNodes 97
scalar OsgEarthNet.cs[4] reservations 137
scalar OsgEarthNet.cs[5] usedPower 210845.71356769
scalar OsgEarthNet.cs[5] chargedPower 210845.71356769
scalar OsgEarthNet.cs[5] chargedMobileNodes 33
scalar OsgEarthNet.cs[5] reservations 45
scalar OsgEarthNet.cs[6] usedPower 3185292.1603541
scalar OsgEarthNet.cs[6] chargedPower 3185292.1603541
scalar OsgEarthNet.cs[6] chargedMobileNodes 684
scalar OsgEarthNet.cs[6] reservations 694

