version 2
run Szenario_Hotel_Gabelbach-12-20180710-12:29:39-41660
attr configname Szenario_Hotel_Gabelbach
attr datetime 20180710-12:29:39
attr experiment Szenario_Hotel_Gabelbach
attr inifile omnetpp.ini
attr iterationvars "$numUAVs=50, $replM=0, $replSearchM=0"
attr iterationvarsf numUAVs=50,replM=0,replSearchM=0-
attr measurement "$numUAVs=50, $replM=0, $replSearchM=0"
attr network OsgEarthNet
attr processid 41660
attr repetition 12
attr replication #12
attr resultdir results
attr runnumber 12
attr seedset 12
itervar numUAVs 50
itervar replM 0
itervar replSearchM 0
param *.osgEarthScene.scene "\"Szenario_Hotel_Gabelbach.earth\""
param *.playgroundLatitude 50.6830269
param *.playgroundLongitude 10.8538055
param *.playgroundWidth 3500m
param *.playgroundHeight 3500m
param *.cs[0].posX 3537m
param *.cs[0].posY 965m
param *.cs[0].posZ 538m
param *.cs[1].posX 312m
param *.cs[1].posY 1262m
param *.cs[1].posZ 539m
param *.cs[2].posX 2185m
param *.cs[2].posY 3026m
param *.cs[2].posZ 777m
param *.cs[3].posX 10m
param *.cs[3].posY 2200m
param *.cs[3].posZ 560m
param *.cs[4].posX 750m
param *.cs[4].posY 200m
param *.cs[4].posZ 540m
param *.cs[5].posX 2450m
param *.cs[5].posY 180m
param *.cs[5].posZ 524m
param *.cs[6].posX 3140m
param *.cs[6].posY 1790m
param *.cs[6].posZ 606m
param *.numCSs 7
param *.numUAVs 50
param *.uav[*].replacementMethod 0
param *.missionControl.replacementSearchMethod 0
param *.*.timeStep 10s
param *.uav[*].commandPreviewCommandCount 20
param *.missionControl.missionFiles "\"missions\\\\Szenario_WB_Hotel_Gabelbach_Mission_Hotel.waypoints,missions\\\\Szenario_WB_Hotel_Gabelbach_Mission_Kickelhahn.waypoints,missions\\\\Szenario_WB_Hotel_Gabelbach_Mission_Ilmenau_Sportplatz.waypoints,missions\\\\Szenario_WB_Hotel_Gabelbach_Mission_Manebach_Mitte.waypoints,missions\\\\Szenario_WB_Hotel_Gabelbach_Mission_Manebach_Sued.waypoints\""
param *.missionControl.missionFiles "\"missions\\\\Szenario_WB_Hotel_Gabelbach_Mission_Hotel.waypoints,missions\\\\Szenario_WB_Hotel_Gabelbach_Mission_Kickelhahn.waypoints,missions\\\\Szenario_WB_Hotel_Gabelbach_Mission_Ilmenau_Sportplatz.waypoints,missions\\\\Szenario_WB_Hotel_Gabelbach_Mission_Manebach_Mitte.waypoints,missions\\\\Szenario_WB_Hotel_Gabelbach_Mission_Manebach_Sued.waypoints,missions\\\\Szenario_WB_Hotel_Gabelbach_Hover_HoheSchlaufe.waypoints,missions\\\\Szenario_WB_Hotel_Gabelbach_Hover_Kickelhahn.waypoints,missions\\\\Szenario_WB_Hotel_Gabelbach_Hover_Gabelbachskopf.waypoints,missions\\\\Szenario_WB_Hotel_Gabelbach_Hover_Dachskopf.waypoints\""
param *.uav[0].startX 3537m
param *.uav[0].startY 965m
param *.uav[0].startZ 539m
param *.uav[1].startX 312m
param *.uav[1].startY 1262m
param *.uav[1].startZ 540m
param *.uav[2].startX 2185m
param *.uav[2].startY 3026m
param *.uav[2].startZ 778m
param *.uav[3].startX 3537m
param *.uav[3].startY 965m
param *.uav[3].startZ 539m
param *.uav[4].startX 312m
param *.uav[4].startY 1262m
param *.uav[4].startZ 540m
param *.uav[5].startX 2185m
param *.uav[5].startY 3026m
param *.uav[5].startZ 778m
param *.uav[6].startX 3537m
param *.uav[6].startY 965m
param *.uav[6].startZ 539m
param *.uav[7].startX 312m
param *.uav[7].startY 1262m
param *.uav[7].startZ 540m
param *.uav[8].startX 2185m
param *.uav[8].startY 3026m
param *.uav[8].startZ 778m
param *.uav[9].startX 3537m
param *.uav[9].startY 965m
param *.uav[9].startZ 539m
param *.uav[10].startX 3537m
param *.uav[10].startY 965m
param *.uav[10].startZ 539m
param *.uav[11].startX 312m
param *.uav[11].startY 1262m
param *.uav[11].startZ 540m
param *.uav[12].startX 2185m
param *.uav[12].startY 3026m
param *.uav[12].startZ 778m
param *.uav[13].startX 3537m
param *.uav[13].startY 965m
param *.uav[13].startZ 539m
param *.uav[14].startX 312m
param *.uav[14].startY 1262m
param *.uav[14].startZ 540m
param *.uav[15].startX 2185m
param *.uav[15].startY 3026m
param *.uav[15].startZ 778m
param *.uav[16].startX 3537m
param *.uav[16].startY 965m
param *.uav[16].startZ 539m
param *.uav[17].startX 312m
param *.uav[17].startY 1262m
param *.uav[17].startZ 540m
param *.uav[18].startX 2185m
param *.uav[18].startY 3026m
param *.uav[18].startZ 778m
param *.uav[19].startX 3537m
param *.uav[19].startY 965m
param *.uav[19].startZ 539m
param *.uav[20].startX 3537m
param *.uav[20].startY 965m
param *.uav[20].startZ 539m
param *.uav[21].startX 312m
param *.uav[21].startY 1262m
param *.uav[21].startZ 540m
param *.uav[22].startX 2185m
param *.uav[22].startY 3026m
param *.uav[22].startZ 778m
param *.uav[23].startX 3537m
param *.uav[23].startY 965m
param *.uav[23].startZ 539m
param *.uav[24].startX 312m
param *.uav[24].startY 1262m
param *.uav[24].startZ 540m
param *.uav[25].startX 2185m
param *.uav[25].startY 3026m
param *.uav[25].startZ 778m
param *.uav[26].startX 3537m
param *.uav[26].startY 965m
param *.uav[26].startZ 539m
param *.uav[27].startX 312m
param *.uav[27].startY 1262m
param *.uav[27].startZ 540m
param *.uav[28].startX 2185m
param *.uav[28].startY 3026m
param *.uav[28].startZ 778m
param *.uav[29].startX 3537m
param *.uav[29].startY 965m
param *.uav[29].startZ 539m
param *.uav[30].startX 3537m
param *.uav[30].startY 965m
param *.uav[30].startZ 539m
param *.uav[31].startX 312m
param *.uav[31].startY 1262m
param *.uav[31].startZ 540m
param *.uav[32].startX 2185m
param *.uav[32].startY 3026m
param *.uav[32].startZ 778m
param *.uav[33].startX 3537m
param *.uav[33].startY 965m
param *.uav[33].startZ 539m
param *.uav[34].startX 312m
param *.uav[34].startY 1262m
param *.uav[34].startZ 540m
param *.uav[35].startX 2185m
param *.uav[35].startY 3026m
param *.uav[35].startZ 778m
param *.uav[36].startX 3537m
param *.uav[36].startY 965m
param *.uav[36].startZ 539m
param *.uav[37].startX 312m
param *.uav[37].startY 1262m
param *.uav[37].startZ 540m
param *.uav[38].startX 2185m
param *.uav[38].startY 3026m
param *.uav[38].startZ 778m
param *.uav[39].startX 3537m
param *.uav[39].startY 965m
param *.uav[39].startZ 539m
param *.uav[40].startX 3537m
param *.uav[40].startY 965m
param *.uav[40].startZ 539m
param *.uav[41].startX 312m
param *.uav[41].startY 1262m
param *.uav[41].startZ 540m
param *.uav[42].startX 2185m
param *.uav[42].startY 3026m
param *.uav[42].startZ 778m
param *.uav[43].startX 3537m
param *.uav[43].startY 965m
param *.uav[43].startZ 539m
param *.uav[44].startX 312m
param *.uav[44].startY 1262m
param *.uav[44].startZ 540m
param *.uav[45].startX 2185m
param *.uav[45].startY 3026m
param *.uav[45].startZ 778m
param *.uav[46].startX 3537m
param *.uav[46].startY 965m
param *.uav[46].startZ 539m
param *.uav[47].startX 312m
param *.uav[47].startY 1262m
param *.uav[47].startZ 540m
param *.uav[48].startX 2185m
param *.uav[48].startY 3026m
param *.uav[48].startZ 778m
param *.uav[49].startX 3537m
param *.uav[49].startY 965m
param *.uav[49].startZ 539m
param *.uav[50].startX 3537m
param *.uav[50].startY 965m
param *.uav[50].startZ 539m
param *.uav[51].startX 312m
param *.uav[51].startY 1262m
param *.uav[51].startZ 540m
param *.uav[52].startX 2185m
param *.uav[52].startY 3026m
param *.uav[52].startZ 778m
param *.uav[53].startX 3537m
param *.uav[53].startY 965m
param *.uav[53].startZ 539m
param *.uav[54].startX 312m
param *.uav[54].startY 1262m
param *.uav[54].startZ 540m
param *.uav[55].startX 2185m
param *.uav[55].startY 3026m
param *.uav[55].startZ 778m
param *.uav[56].startX 3537m
param *.uav[56].startY 965m
param *.uav[56].startZ 539m
param *.uav[57].startX 312m
param *.uav[57].startY 1262m
param *.uav[57].startZ 540m
param *.uav[58].startX 2185m
param *.uav[58].startY 3026m
param *.uav[58].startZ 778m
param *.uav[59].startX 3537m
param *.uav[59].startY 965m
param *.uav[59].startZ 539m
param *.uav[60].startX 3537m
param *.uav[60].startY 965m
param *.uav[60].startZ 539m
param *.uav[61].startX 312m
param *.uav[61].startY 1262m
param *.uav[61].startZ 540m
param *.uav[62].startX 2185m
param *.uav[62].startY 3026m
param *.uav[62].startZ 778m
param *.uav[63].startX 3537m
param *.uav[63].startY 965m
param *.uav[63].startZ 539m
param *.uav[64].startX 312m
param *.uav[64].startY 1262m
param *.uav[64].startZ 540m
param *.uav[65].startX 2185m
param *.uav[65].startY 3026m
param *.uav[65].startZ 778m
param *.uav[66].startX 3537m
param *.uav[66].startY 965m
param *.uav[66].startZ 539m
param *.uav[67].startX 312m
param *.uav[67].startY 1262m
param *.uav[67].startZ 540m
param *.uav[68].startX 2185m
param *.uav[68].startY 3026m
param *.uav[68].startZ 778m
param *.uav[69].startX 3537m
param *.uav[69].startY 965m
param *.uav[69].startZ 539m
param *.uav[70].startX 3537m
param *.uav[70].startY 965m
param *.uav[70].startZ 539m
param *.uav[71].startX 312m
param *.uav[71].startY 1262m
param *.uav[71].startZ 540m
param *.uav[72].startX 2185m
param *.uav[72].startY 3026m
param *.uav[72].startZ 778m
param *.uav[73].startX 3537m
param *.uav[73].startY 965m
param *.uav[73].startZ 539m
param *.uav[74].startX 312m
param *.uav[74].startY 1262m
param *.uav[74].startZ 540m
param *.uav[75].startX 2185m
param *.uav[75].startY 3026m
param *.uav[75].startZ 778m
param *.uav[76].startX 3537m
param *.uav[76].startY 965m
param *.uav[76].startZ 539m
param *.uav[77].startX 312m
param *.uav[77].startY 1262m
param *.uav[77].startZ 540m
param *.uav[78].startX 2185m
param *.uav[78].startY 3026m
param *.uav[78].startZ 778m
param *.uav[79].startX 3537m
param *.uav[79].startY 965m
param *.uav[79].startZ 539m
param *.uav[80].startX 3537m
param *.uav[80].startY 965m
param *.uav[80].startZ 539m
param *.uav[81].startX 312m
param *.uav[81].startY 1262m
param *.uav[81].startZ 540m
param *.uav[82].startX 2185m
param *.uav[82].startY 3026m
param *.uav[82].startZ 778m
param *.uav[83].startX 3537m
param *.uav[83].startY 965m
param *.uav[83].startZ 539m
param *.uav[84].startX 312m
param *.uav[84].startY 1262m
param *.uav[84].startZ 540m
param *.uav[85].startX 2185m
param *.uav[85].startY 3026m
param *.uav[85].startZ 778m
param *.uav[86].startX 3537m
param *.uav[86].startY 965m
param *.uav[86].startZ 539m
param *.uav[87].startX 312m
param *.uav[87].startY 1262m
param *.uav[87].startZ 540m
param *.uav[88].startX 2185m
param *.uav[88].startY 3026m
param *.uav[88].startZ 778m
param *.uav[89].startX 3537m
param *.uav[89].startY 965m
param *.uav[89].startZ 539m
param *.uav[90].startX 3537m
param *.uav[90].startY 965m
param *.uav[90].startZ 539m
param *.uav[91].startX 312m
param *.uav[91].startY 1262m
param *.uav[91].startZ 540m
param *.uav[92].startX 2185m
param *.uav[92].startY 3026m
param *.uav[92].startZ 778m
param *.uav[93].startX 3537m
param *.uav[93].startY 965m
param *.uav[93].startZ 539m
param *.uav[94].startX 312m
param *.uav[94].startY 1262m
param *.uav[94].startZ 540m
param *.uav[95].startX 2185m
param *.uav[95].startY 3026m
param *.uav[95].startZ 778m
param *.uav[96].startX 3537m
param *.uav[96].startY 965m
param *.uav[96].startZ 539m
param *.uav[97].startX 312m
param *.uav[97].startY 1262m
param *.uav[97].startZ 540m
param *.uav[98].startX 2185m
param *.uav[98].startY 3026m
param *.uav[98].startZ 778m
param *.uav[99].startX 3537m
param *.uav[99].startY 965m
param *.uav[99].startZ 539m
param *.osgEarthScene.scene "\"boston.earth\""
param *.playgroundLatitude 42.3558
param *.playgroundLongitude -71.0677
param *.playgroundWidth 400m
param *.playgroundHeight 200m
param *.channelController.connectionColor "\"#0000FF40\""
param *.channelController.showConnections false
param *.uav[*].modelURL "\"quadrocopter.small.obj.15.scale.0,0,90.rot\""
param *.uav[*].labelColor "\"#FF7C00CC\""
param *.uav[*].label2Color "\"#FF7C00EE\""
param *.uav[*].batteryCapacity 5200mAh
param *.uav[*].batteryRemaining uav[index].batteryCapacity
param *.uav[*].predictionQuantile 0.95
param *.uav[*].replacementMethod 2
param *.uav[*].weightedSumWeight 0.5
param *.cs[*].modelURL "\"chargingstation_v1.osgt.2.scale.0,0,0.rot.0,0,-15e-1.trans\""
param *.cs[*].spotsWaiting 999
param *.cs[*].spotsCharging 999
param *.cs[*].chargeEffectivenessPercentage 100
param *.cs[*].nonLinearPhaseStartPercentage 85
param *.cs[*].chargeCurrent 6.0A
param *.cs[*].prioritizeFastCharge true
param *.missionControl.replacementSearchMethod 0
param *.*.timeStep 9s

scalar OsgEarthNet.uav[0] utilizationSecMission 24091.846962896
scalar OsgEarthNet.uav[0] utilizationSecMaintenance 13109.365584336
scalar OsgEarthNet.uav[0] utilizationSecCharge 136970
scalar OsgEarthNet.uav[0] utilizationSecIdle 85028.786452769
scalar OsgEarthNet.uav[0] utilizationEnergyMission 109494.58685303
scalar OsgEarthNet.uav[0] utilizationEnergyMaintenance 61708.204708099
scalar OsgEarthNet.uav[0] utilizationEnergyCharge 171369.62011719
scalar OsgEarthNet.uav[0] utilizationEnergyOverdrawMission 0
scalar OsgEarthNet.uav[0] utilizationEnergyOverdrawMaintenance 0
scalar OsgEarthNet.uav[0] utilizationCountMissions 37
scalar OsgEarthNet.uav[0] utilizationCountManeuversMission 396
scalar OsgEarthNet.uav[0] utilizationCountManeuversMaintenance 74
scalar OsgEarthNet.uav[0] utilizationCountChargeState 37
scalar OsgEarthNet.uav[0] utilizationCountOverdrawnAfterMission 0
scalar OsgEarthNet.uav[0] utilizationCountIdleState 38
scalar OsgEarthNet.uav[0] utilizationFail 0
scalar OsgEarthNet.uav[0] simulationTime 259200
scalar OsgEarthNet.uav[1] utilizationSecMission 29870.643866493
scalar OsgEarthNet.uav[1] utilizationSecMaintenance 15217.969739455
scalar OsgEarthNet.uav[1] utilizationSecCharge 164533.03278679
scalar OsgEarthNet.uav[1] utilizationSecIdle 49578.352607263
scalar OsgEarthNet.uav[1] utilizationEnergyMission 138587.92297363
scalar OsgEarthNet.uav[1] utilizationEnergyMaintenance 70789.108863831
scalar OsgEarthNet.uav[1] utilizationEnergyCharge 206639.78881836
scalar OsgEarthNet.uav[1] utilizationEnergyOverdrawMission 0
scalar OsgEarthNet.uav[1] utilizationEnergyOverdrawMaintenance 0
scalar OsgEarthNet.uav[1] utilizationCountMissions 45
scalar OsgEarthNet.uav[1] utilizationCountManeuversMission 480
scalar OsgEarthNet.uav[1] utilizationCountManeuversMaintenance 90
scalar OsgEarthNet.uav[1] utilizationCountChargeState 45
scalar OsgEarthNet.uav[1] utilizationCountOverdrawnAfterMission 0
scalar OsgEarthNet.uav[1] utilizationCountIdleState 45
scalar OsgEarthNet.uav[1] utilizationFail 0
scalar OsgEarthNet.uav[1] simulationTime 259200
scalar OsgEarthNet.uav[2] utilizationSecMission 27265.208972833
scalar OsgEarthNet.uav[2] utilizationSecMaintenance 10992.822344204
scalar OsgEarthNet.uav[2] utilizationSecCharge 142140
scalar OsgEarthNet.uav[2] utilizationSecIdle 78801.967682963
scalar OsgEarthNet.uav[2] utilizationEnergyMission 126587.64229584
scalar OsgEarthNet.uav[2] utilizationEnergyMaintenance 51438.614479065
scalar OsgEarthNet.uav[2] utilizationEnergyCharge 178635.45410156
scalar OsgEarthNet.uav[2] utilizationEnergyOverdrawMission 0
scalar OsgEarthNet.uav[2] utilizationEnergyOverdrawMaintenance 0
scalar OsgEarthNet.uav[2] utilizationCountMissions 38
scalar OsgEarthNet.uav[2] utilizationCountManeuversMission 445
scalar OsgEarthNet.uav[2] utilizationCountManeuversMaintenance 76
scalar OsgEarthNet.uav[2] utilizationCountChargeState 38
scalar OsgEarthNet.uav[2] utilizationCountOverdrawnAfterMission 0
scalar OsgEarthNet.uav[2] utilizationCountIdleState 39
scalar OsgEarthNet.uav[2] utilizationFail 0
scalar OsgEarthNet.uav[2] simulationTime 259200
scalar OsgEarthNet.uav[3] utilizationSecMission 28073.388459749
scalar OsgEarthNet.uav[3] utilizationSecMaintenance 14081.445737944
scalar OsgEarthNet.uav[3] utilizationSecCharge 156171.77267877
scalar OsgEarthNet.uav[3] utilizationSecIdle 60873.392123535
scalar OsgEarthNet.uav[3] utilizationEnergyMission 130685.29505157
scalar OsgEarthNet.uav[3] utilizationEnergyMaintenance 65639.186374664
scalar OsgEarthNet.uav[3] utilizationEnergyCharge 196426.0234375
scalar OsgEarthNet.uav[3] utilizationEnergyOverdrawMission 0
scalar OsgEarthNet.uav[3] utilizationEnergyOverdrawMaintenance 0
scalar OsgEarthNet.uav[3] utilizationCountMissions 42
scalar OsgEarthNet.uav[3] utilizationCountManeuversMission 455
scalar OsgEarthNet.uav[3] utilizationCountManeuversMaintenance 84
scalar OsgEarthNet.uav[3] utilizationCountChargeState 42
scalar OsgEarthNet.uav[3] utilizationCountOverdrawnAfterMission 0
scalar OsgEarthNet.uav[3] utilizationCountIdleState 42
scalar OsgEarthNet.uav[3] utilizationFail 0
scalar OsgEarthNet.uav[3] simulationTime 259200
scalar OsgEarthNet.uav[4] utilizationSecMission 31718.029866374
scalar OsgEarthNet.uav[4] utilizationSecMaintenance 13356.135142064
scalar OsgEarthNet.uav[4] utilizationSecCharge 165909.15318367
scalar OsgEarthNet.uav[4] utilizationSecIdle 48216.680807888
scalar OsgEarthNet.uav[4] utilizationEnergyMission 144920.49988556
scalar OsgEarthNet.uav[4] utilizationEnergyMaintenance 63684.832988739
scalar OsgEarthNet.uav[4] utilizationEnergyCharge 208541.9609375
scalar OsgEarthNet.uav[4] utilizationEnergyOverdrawMission 0
scalar OsgEarthNet.uav[4] utilizationEnergyOverdrawMaintenance 0
scalar OsgEarthNet.uav[4] utilizationCountMissions 45
scalar OsgEarthNet.uav[4] utilizationCountManeuversMission 502
scalar OsgEarthNet.uav[4] utilizationCountManeuversMaintenance 90
scalar OsgEarthNet.uav[4] utilizationCountChargeState 45
scalar OsgEarthNet.uav[4] utilizationCountOverdrawnAfterMission 0
scalar OsgEarthNet.uav[4] utilizationCountIdleState 45
scalar OsgEarthNet.uav[4] utilizationFail 0
scalar OsgEarthNet.uav[4] simulationTime 259200
scalar OsgEarthNet.uav[5] utilizationSecMission 33093.868311285
scalar OsgEarthNet.uav[5] utilizationSecMaintenance 13404.130688715
scalar OsgEarthNet.uav[5] utilizationSecCharge 167260
scalar OsgEarthNet.uav[5] utilizationSecIdle 45442
scalar OsgEarthNet.uav[5] utilizationEnergyMission 151567.38531901
scalar OsgEarthNet.uav[5] utilizationEnergyMaintenance 62641.378376234
scalar OsgEarthNet.uav[5] utilizationEnergyCharge 209373.67089844
scalar OsgEarthNet.uav[5] utilizationEnergyOverdrawMission 0
scalar OsgEarthNet.uav[5] utilizationEnergyOverdrawMaintenance 0
scalar OsgEarthNet.uav[5] utilizationCountMissions 46
scalar OsgEarthNet.uav[5] utilizationCountManeuversMission 526
scalar OsgEarthNet.uav[5] utilizationCountManeuversMaintenance 91
scalar OsgEarthNet.uav[5] utilizationCountChargeState 45
scalar OsgEarthNet.uav[5] utilizationCountOverdrawnAfterMission 0
scalar OsgEarthNet.uav[5] utilizationCountIdleState 46
scalar OsgEarthNet.uav[5] utilizationFail 0
scalar OsgEarthNet.uav[5] simulationTime 259200
scalar OsgEarthNet.uav[6] utilizationSecMission 24436.469985694
scalar OsgEarthNet.uav[6] utilizationSecMaintenance 12774.470082154
scalar OsgEarthNet.uav[6] utilizationSecCharge 136686.61104867
scalar OsgEarthNet.uav[6] utilizationSecIdle 85302.447883481
scalar OsgEarthNet.uav[6] utilizationEnergyMission 112681.70481491
scalar OsgEarthNet.uav[6] utilizationEnergyMaintenance 60232.236293793
scalar OsgEarthNet.uav[6] utilizationEnergyCharge 172332.10791016
scalar OsgEarthNet.uav[6] utilizationEnergyOverdrawMission 0
scalar OsgEarthNet.uav[6] utilizationEnergyOverdrawMaintenance 0
scalar OsgEarthNet.uav[6] utilizationCountMissions 37
scalar OsgEarthNet.uav[6] utilizationCountManeuversMission 410
scalar OsgEarthNet.uav[6] utilizationCountManeuversMaintenance 74
scalar OsgEarthNet.uav[6] utilizationCountChargeState 37
scalar OsgEarthNet.uav[6] utilizationCountOverdrawnAfterMission 0
scalar OsgEarthNet.uav[6] utilizationCountIdleState 37
scalar OsgEarthNet.uav[6] utilizationFail 0
scalar OsgEarthNet.uav[6] simulationTime 259200
scalar OsgEarthNet.uav[7] utilizationSecMission 30238.561175326
scalar OsgEarthNet.uav[7] utilizationSecMaintenance 14614.96301233
scalar OsgEarthNet.uav[7] utilizationSecCharge 162960
scalar OsgEarthNet.uav[7] utilizationSecIdle 51386.474812345
scalar OsgEarthNet.uav[7] utilizationEnergyMission 138976.47048374
scalar OsgEarthNet.uav[7] utilizationEnergyMaintenance 68622.769607544
scalar OsgEarthNet.uav[7] utilizationEnergyCharge 203873.27880859
scalar OsgEarthNet.uav[7] utilizationEnergyOverdrawMission 0
scalar OsgEarthNet.uav[7] utilizationEnergyOverdrawMaintenance 0
scalar OsgEarthNet.uav[7] utilizationCountMissions 44
scalar OsgEarthNet.uav[7] utilizationCountManeuversMission 496
scalar OsgEarthNet.uav[7] utilizationCountManeuversMaintenance 89
scalar OsgEarthNet.uav[7] utilizationCountChargeState 44
scalar OsgEarthNet.uav[7] utilizationCountOverdrawnAfterMission 0
scalar OsgEarthNet.uav[7] utilizationCountIdleState 45
scalar OsgEarthNet.uav[7] utilizationFail 0
scalar OsgEarthNet.uav[7] simulationTime 259200
scalar OsgEarthNet.uav[8] utilizationSecMission 30783.167616234
scalar OsgEarthNet.uav[8] utilizationSecMaintenance 13583.498538856
scalar OsgEarthNet.uav[8] utilizationSecCharge 162036.47380086
scalar OsgEarthNet.uav[8] utilizationSecIdle 52796.85904405
scalar OsgEarthNet.uav[8] utilizationEnergyMission 142092.35375214
scalar OsgEarthNet.uav[8] utilizationEnergyMaintenance 63598.906051636
scalar OsgEarthNet.uav[8] utilizationEnergyCharge 204108.03173828
scalar OsgEarthNet.uav[8] utilizationEnergyOverdrawMission 0
scalar OsgEarthNet.uav[8] utilizationEnergyOverdrawMaintenance 0
scalar OsgEarthNet.uav[8] utilizationCountMissions 44
scalar OsgEarthNet.uav[8] utilizationCountManeuversMission 498
scalar OsgEarthNet.uav[8] utilizationCountManeuversMaintenance 88
scalar OsgEarthNet.uav[8] utilizationCountChargeState 44
scalar OsgEarthNet.uav[8] utilizationCountOverdrawnAfterMission 0
scalar OsgEarthNet.uav[8] utilizationCountIdleState 44
scalar OsgEarthNet.uav[8] utilizationFail 0
scalar OsgEarthNet.uav[8] simulationTime 259200
scalar OsgEarthNet.uav[9] utilizationSecMission 24591.620324258
scalar OsgEarthNet.uav[9] utilizationSecMaintenance 13185.139275887
scalar OsgEarthNet.uav[9] utilizationSecCharge 140400
scalar OsgEarthNet.uav[9] utilizationSecIdle 81023.239399855
scalar OsgEarthNet.uav[9] utilizationEnergyMission 112784.75674438
scalar OsgEarthNet.uav[9] utilizationEnergyMaintenance 61900.103404999
scalar OsgEarthNet.uav[9] utilizationEnergyCharge 175617.17260742
scalar OsgEarthNet.uav[9] utilizationEnergyOverdrawMission 0
scalar OsgEarthNet.uav[9] utilizationEnergyOverdrawMaintenance 0
scalar OsgEarthNet.uav[9] utilizationCountMissions 38
scalar OsgEarthNet.uav[9] utilizationCountManeuversMission 400
scalar OsgEarthNet.uav[9] utilizationCountManeuversMaintenance 76
scalar OsgEarthNet.uav[9] utilizationCountChargeState 38
scalar OsgEarthNet.uav[9] utilizationCountOverdrawnAfterMission 0
scalar OsgEarthNet.uav[9] utilizationCountIdleState 39
scalar OsgEarthNet.uav[9] utilizationFail 0
scalar OsgEarthNet.uav[9] simulationTime 259200
scalar OsgEarthNet.uav[10] utilizationSecMission 30344.605824168
scalar OsgEarthNet.uav[10] utilizationSecMaintenance 15828.53257997
scalar OsgEarthNet.uav[10] utilizationSecCharge 169724.23443507
scalar OsgEarthNet.uav[10] utilizationSecIdle 43302.626160789
scalar OsgEarthNet.uav[10] utilizationEnergyMission 139642.31314468
scalar OsgEarthNet.uav[10] utilizationEnergyMaintenance 74022.379611969
scalar OsgEarthNet.uav[10] utilizationEnergyCharge 213282.20605469
scalar OsgEarthNet.uav[10] utilizationEnergyOverdrawMission 0
scalar OsgEarthNet.uav[10] utilizationEnergyOverdrawMaintenance 0
scalar OsgEarthNet.uav[10] utilizationCountMissions 46
scalar OsgEarthNet.uav[10] utilizationCountManeuversMission 494
scalar OsgEarthNet.uav[10] utilizationCountManeuversMaintenance 92
scalar OsgEarthNet.uav[10] utilizationCountChargeState 46
scalar OsgEarthNet.uav[10] utilizationCountOverdrawnAfterMission 0
scalar OsgEarthNet.uav[10] utilizationCountIdleState 46
scalar OsgEarthNet.uav[10] utilizationFail 0
scalar OsgEarthNet.uav[10] simulationTime 259200
scalar OsgEarthNet.uav[11] utilizationSecMission 31300.955572576
scalar OsgEarthNet.uav[11] utilizationSecMaintenance 14524.431537908
scalar OsgEarthNet.uav[11] utilizationSecCharge 167690
scalar OsgEarthNet.uav[11] utilizationSecIdle 45684.611889516
scalar OsgEarthNet.uav[11] utilizationEnergyMission 143136.02135165
scalar OsgEarthNet.uav[11] utilizationEnergyMaintenance 68182.858436584
scalar OsgEarthNet.uav[11] utilizationEnergyCharge 210184.07958984
scalar OsgEarthNet.uav[11] utilizationEnergyOverdrawMission 0
scalar OsgEarthNet.uav[11] utilizationEnergyOverdrawMaintenance 0
scalar OsgEarthNet.uav[11] utilizationCountMissions 45
scalar OsgEarthNet.uav[11] utilizationCountManeuversMission 502
scalar OsgEarthNet.uav[11] utilizationCountManeuversMaintenance 91
scalar OsgEarthNet.uav[11] utilizationCountChargeState 45
scalar OsgEarthNet.uav[11] utilizationCountOverdrawnAfterMission 0
scalar OsgEarthNet.uav[11] utilizationCountIdleState 46
scalar OsgEarthNet.uav[11] utilizationFail 0
scalar OsgEarthNet.uav[11] simulationTime 259200
scalar OsgEarthNet.uav[12] utilizationSecMission 29253.152498929
scalar OsgEarthNet.uav[12] utilizationSecMaintenance 15117.880430306
scalar OsgEarthNet.uav[12] utilizationSecCharge 163680
scalar OsgEarthNet.uav[12] utilizationSecIdle 51148.966070765
scalar OsgEarthNet.uav[12] utilizationEnergyMission 134079.28759003
scalar OsgEarthNet.uav[12] utilizationEnergyMaintenance 71041.252471924
scalar OsgEarthNet.uav[12] utilizationEnergyCharge 205387.15917969
scalar OsgEarthNet.uav[12] utilizationEnergyOverdrawMission 0
scalar OsgEarthNet.uav[12] utilizationEnergyOverdrawMaintenance 0
scalar OsgEarthNet.uav[12] utilizationCountMissions 44
scalar OsgEarthNet.uav[12] utilizationCountManeuversMission 469
scalar OsgEarthNet.uav[12] utilizationCountManeuversMaintenance 88
scalar OsgEarthNet.uav[12] utilizationCountChargeState 44
scalar OsgEarthNet.uav[12] utilizationCountOverdrawnAfterMission 0
scalar OsgEarthNet.uav[12] utilizationCountIdleState 45
scalar OsgEarthNet.uav[12] utilizationFail 0
scalar OsgEarthNet.uav[12] simulationTime 259200
scalar OsgEarthNet.uav[13] utilizationSecMission 2046.1763140333
scalar OsgEarthNet.uav[13] utilizationSecMaintenance 988.45955221038
scalar OsgEarthNet.uav[13] utilizationSecCharge 11350
scalar OsgEarthNet.uav[13] utilizationSecIdle 244815.36313376
scalar OsgEarthNet.uav[13] utilizationEnergyMission 9560.000793457
scalar OsgEarthNet.uav[13] utilizationEnergyMaintenance 4839.299243927
scalar OsgEarthNet.uav[13] utilizationEnergyCharge 14342.127441406
scalar OsgEarthNet.uav[13] utilizationEnergyOverdrawMission 0
scalar OsgEarthNet.uav[13] utilizationEnergyOverdrawMaintenance 0
scalar OsgEarthNet.uav[13] utilizationCountMissions 3
scalar OsgEarthNet.uav[13] utilizationCountManeuversMission 31
scalar OsgEarthNet.uav[13] utilizationCountManeuversMaintenance 6
scalar OsgEarthNet.uav[13] utilizationCountChargeState 3
scalar OsgEarthNet.uav[13] utilizationCountOverdrawnAfterMission 0
scalar OsgEarthNet.uav[13] utilizationCountIdleState 4
scalar OsgEarthNet.uav[13] utilizationFail 0
scalar OsgEarthNet.uav[13] simulationTime 259200
scalar OsgEarthNet.uav[14] utilizationSecMission 28790.934402454
scalar OsgEarthNet.uav[14] utilizationSecMaintenance 13701.470163924
scalar OsgEarthNet.uav[14] utilizationSecCharge 155497.24547052
scalar OsgEarthNet.uav[14] utilizationSecIdle 61210.348963104
scalar OsgEarthNet.uav[14] utilizationEnergyMission 134349.44223785
scalar OsgEarthNet.uav[14] utilizationEnergyMaintenance 65236.067070007
scalar OsgEarthNet.uav[14] utilizationEnergyCharge 196179.46508789
scalar OsgEarthNet.uav[14] utilizationEnergyOverdrawMission 0
scalar OsgEarthNet.uav[14] utilizationEnergyOverdrawMaintenance 0
scalar OsgEarthNet.uav[14] utilizationCountMissions 42
scalar OsgEarthNet.uav[14] utilizationCountManeuversMission 473
scalar OsgEarthNet.uav[14] utilizationCountManeuversMaintenance 84
scalar OsgEarthNet.uav[14] utilizationCountChargeState 42
scalar OsgEarthNet.uav[14] utilizationCountOverdrawnAfterMission 0
scalar OsgEarthNet.uav[14] utilizationCountIdleState 42
scalar OsgEarthNet.uav[14] utilizationFail 0
scalar OsgEarthNet.uav[14] simulationTime 259200
scalar OsgEarthNet.uav[15] utilizationSecMission 26989.904983929
scalar OsgEarthNet.uav[15] utilizationSecMaintenance 16215.419600301
scalar OsgEarthNet.uav[15] utilizationSecCharge 158068.02110857
scalar OsgEarthNet.uav[15] utilizationSecIdle 57926.653307198
scalar OsgEarthNet.uav[15] utilizationEnergyMission 124956.12153625
scalar OsgEarthNet.uav[15] utilizationEnergyMaintenance 76205.642398834
scalar OsgEarthNet.uav[15] utilizationEnergyCharge 199293.92895508
scalar OsgEarthNet.uav[15] utilizationEnergyOverdrawMission 0
scalar OsgEarthNet.uav[15] utilizationEnergyOverdrawMaintenance 0
scalar OsgEarthNet.uav[15] utilizationCountMissions 43
scalar OsgEarthNet.uav[15] utilizationCountManeuversMission 443
scalar OsgEarthNet.uav[15] utilizationCountManeuversMaintenance 86
scalar OsgEarthNet.uav[15] utilizationCountChargeState 43
scalar OsgEarthNet.uav[15] utilizationCountOverdrawnAfterMission 0
scalar OsgEarthNet.uav[15] utilizationCountIdleState 43
scalar OsgEarthNet.uav[15] utilizationFail 0
scalar OsgEarthNet.uav[15] simulationTime 259200
scalar OsgEarthNet.uav[16] utilizationSecMission 31158.511732444
scalar OsgEarthNet.uav[16] utilizationSecMaintenance 12665.25049637
scalar OsgEarthNet.uav[16] utilizationSecCharge 162920
scalar OsgEarthNet.uav[16] utilizationSecIdle 52456.236771186
scalar OsgEarthNet.uav[16] utilizationEnergyMission 144648.67428207
scalar OsgEarthNet.uav[16] utilizationEnergyMaintenance 59298.197853088
scalar OsgEarthNet.uav[16] utilizationEnergyCharge 203810.48510742
scalar OsgEarthNet.uav[16] utilizationEnergyOverdrawMission 0
scalar OsgEarthNet.uav[16] utilizationEnergyOverdrawMaintenance 0
scalar OsgEarthNet.uav[16] utilizationCountMissions 44
scalar OsgEarthNet.uav[16] utilizationCountManeuversMission 500
scalar OsgEarthNet.uav[16] utilizationCountManeuversMaintenance 88
scalar OsgEarthNet.uav[16] utilizationCountChargeState 44
scalar OsgEarthNet.uav[16] utilizationCountOverdrawnAfterMission 0
scalar OsgEarthNet.uav[16] utilizationCountIdleState 45
scalar OsgEarthNet.uav[16] utilizationFail 0
scalar OsgEarthNet.uav[16] simulationTime 259200
scalar OsgEarthNet.uav[17] utilizationSecMission 28912.682776797
scalar OsgEarthNet.uav[17] utilizationSecMaintenance 15098.980200946
scalar OsgEarthNet.uav[17] utilizationSecCharge 161679.65018228
scalar OsgEarthNet.uav[17] utilizationSecIdle 53508.685839978
scalar OsgEarthNet.uav[17] utilizationEnergyMission 133651.18041229
scalar OsgEarthNet.uav[17] utilizationEnergyMaintenance 70325.059658051
scalar OsgEarthNet.uav[17] utilizationEnergyCharge 203615.14697266
scalar OsgEarthNet.uav[17] utilizationEnergyOverdrawMission 0
scalar OsgEarthNet.uav[17] utilizationEnergyOverdrawMaintenance 0
scalar OsgEarthNet.uav[17] utilizationCountMissions 44
scalar OsgEarthNet.uav[17] utilizationCountManeuversMission 472
scalar OsgEarthNet.uav[17] utilizationCountManeuversMaintenance 88
scalar OsgEarthNet.uav[17] utilizationCountChargeState 44
scalar OsgEarthNet.uav[17] utilizationCountOverdrawnAfterMission 0
scalar OsgEarthNet.uav[17] utilizationCountIdleState 44
scalar OsgEarthNet.uav[17] utilizationFail 0
scalar OsgEarthNet.uav[17] simulationTime 259200
scalar OsgEarthNet.uav[18] utilizationSecMission 29001.595552232
scalar OsgEarthNet.uav[18] utilizationSecMaintenance 15963.133595067
scalar OsgEarthNet.uav[18] utilizationSecCharge 165687.81958867
scalar OsgEarthNet.uav[18] utilizationSecIdle 48547.450264031
scalar OsgEarthNet.uav[18] utilizationEnergyMission 134091.11197662
scalar OsgEarthNet.uav[18] utilizationEnergyMaintenance 74417.093475342
scalar OsgEarthNet.uav[18] utilizationEnergyCharge 208199.47119141
scalar OsgEarthNet.uav[18] utilizationEnergyOverdrawMission 0
scalar OsgEarthNet.uav[18] utilizationEnergyOverdrawMaintenance 0
scalar OsgEarthNet.uav[18] utilizationCountMissions 45
scalar OsgEarthNet.uav[18] utilizationCountManeuversMission 495
scalar OsgEarthNet.uav[18] utilizationCountManeuversMaintenance 90
scalar OsgEarthNet.uav[18] utilizationCountChargeState 45
scalar OsgEarthNet.uav[18] utilizationCountOverdrawnAfterMission 0
scalar OsgEarthNet.uav[18] utilizationCountIdleState 45
scalar OsgEarthNet.uav[18] utilizationFail 0
scalar OsgEarthNet.uav[18] simulationTime 259200
scalar OsgEarthNet.uav[19] utilizationSecMission 29763.763312411
scalar OsgEarthNet.uav[19] utilizationSecMaintenance 15133.824216012
scalar OsgEarthNet.uav[19] utilizationSecCharge 163990
scalar OsgEarthNet.uav[19] utilizationSecIdle 50312.411471578
scalar OsgEarthNet.uav[19] utilizationEnergyMission 138192.92310333
scalar OsgEarthNet.uav[19] utilizationEnergyMaintenance 71003.447415391
scalar OsgEarthNet.uav[19] utilizationEnergyCharge 205767.00439453
scalar OsgEarthNet.uav[19] utilizationEnergyOverdrawMission 0
scalar OsgEarthNet.uav[19] utilizationEnergyOverdrawMaintenance 0
scalar OsgEarthNet.uav[19] utilizationCountMissions 45
scalar OsgEarthNet.uav[19] utilizationCountManeuversMission 479
scalar OsgEarthNet.uav[19] utilizationCountManeuversMaintenance 90
scalar OsgEarthNet.uav[19] utilizationCountChargeState 44
scalar OsgEarthNet.uav[19] utilizationCountOverdrawnAfterMission 0
scalar OsgEarthNet.uav[19] utilizationCountIdleState 45
scalar OsgEarthNet.uav[19] utilizationFail 0
scalar OsgEarthNet.uav[19] simulationTime 259200
scalar OsgEarthNet.uav[20] utilizationSecMission 31272.043717693
scalar OsgEarthNet.uav[20] utilizationSecMaintenance 14112.828043131
scalar OsgEarthNet.uav[20] utilizationSecCharge 164128.55183536
scalar OsgEarthNet.uav[20] utilizationSecIdle 49686.575403819
scalar OsgEarthNet.uav[20] utilizationEnergyMission 143783.30920792
scalar OsgEarthNet.uav[20] utilizationEnergyMaintenance 66214.038154602
scalar OsgEarthNet.uav[20] utilizationEnergyCharge 205728.80163574
scalar OsgEarthNet.uav[20] utilizationEnergyOverdrawMission 0
scalar OsgEarthNet.uav[20] utilizationEnergyOverdrawMaintenance 0
scalar OsgEarthNet.uav[20] utilizationCountMissions 45
scalar OsgEarthNet.uav[20] utilizationCountManeuversMission 511
scalar OsgEarthNet.uav[20] utilizationCountManeuversMaintenance 90
scalar OsgEarthNet.uav[20] utilizationCountChargeState 45
scalar OsgEarthNet.uav[20] utilizationCountOverdrawnAfterMission 0
scalar OsgEarthNet.uav[20] utilizationCountIdleState 45
scalar OsgEarthNet.uav[20] utilizationFail 0
scalar OsgEarthNet.uav[20] simulationTime 259200
scalar OsgEarthNet.uav[21] utilizationSecMission 28387.832220541
scalar OsgEarthNet.uav[21] utilizationSecMaintenance 16814.504341588
scalar OsgEarthNet.uav[21] utilizationSecCharge 164068.27843329
scalar OsgEarthNet.uav[21] utilizationSecIdle 49929.384004586
scalar OsgEarthNet.uav[21] utilizationEnergyMission 131101.19632721
scalar OsgEarthNet.uav[21] utilizationEnergyMaintenance 78527.662624359
scalar OsgEarthNet.uav[21] utilizationEnergyCharge 205865.94854736
scalar OsgEarthNet.uav[21] utilizationEnergyOverdrawMission 0
scalar OsgEarthNet.uav[21] utilizationEnergyOverdrawMaintenance 0
scalar OsgEarthNet.uav[21] utilizationCountMissions 45
scalar OsgEarthNet.uav[21] utilizationCountManeuversMission 457
scalar OsgEarthNet.uav[21] utilizationCountManeuversMaintenance 90
scalar OsgEarthNet.uav[21] utilizationCountChargeState 45
scalar OsgEarthNet.uav[21] utilizationCountOverdrawnAfterMission 0
scalar OsgEarthNet.uav[21] utilizationCountIdleState 45
scalar OsgEarthNet.uav[21] utilizationFail 0
scalar OsgEarthNet.uav[21] simulationTime 259200
scalar OsgEarthNet.uav[22] utilizationSecMission 28860.808318726
scalar OsgEarthNet.uav[22] utilizationSecMaintenance 14308.140575039
scalar OsgEarthNet.uav[22] utilizationSecCharge 158137.524775
scalar OsgEarthNet.uav[22] utilizationSecIdle 57893.525331232
scalar OsgEarthNet.uav[22] utilizationEnergyMission 133853.30747986
scalar OsgEarthNet.uav[22] utilizationEnergyMaintenance 66657.500141144
scalar OsgEarthNet.uav[22] utilizationEnergyCharge 199004.23828125
scalar OsgEarthNet.uav[22] utilizationEnergyOverdrawMission 0
scalar OsgEarthNet.uav[22] utilizationEnergyOverdrawMaintenance 0
scalar OsgEarthNet.uav[22] utilizationCountMissions 43
scalar OsgEarthNet.uav[22] utilizationCountManeuversMission 476
scalar OsgEarthNet.uav[22] utilizationCountManeuversMaintenance 86
scalar OsgEarthNet.uav[22] utilizationCountChargeState 43
scalar OsgEarthNet.uav[22] utilizationCountOverdrawnAfterMission 0
scalar OsgEarthNet.uav[22] utilizationCountIdleState 43
scalar OsgEarthNet.uav[22] utilizationFail 0
scalar OsgEarthNet.uav[22] simulationTime 259200
scalar OsgEarthNet.uav[23] utilizationSecMission 16317.154976351
scalar OsgEarthNet.uav[23] utilizationSecMaintenance 7327.8874569576
scalar OsgEarthNet.uav[23] utilizationSecCharge 86970
scalar OsgEarthNet.uav[23] utilizationSecIdle 148584.95656669
scalar OsgEarthNet.uav[23] utilizationEnergyMission 75607.68221283
scalar OsgEarthNet.uav[23] utilizationEnergyMaintenance 34608.84331131
scalar OsgEarthNet.uav[23] utilizationEnergyCharge 109620.4765625
scalar OsgEarthNet.uav[23] utilizationEnergyOverdrawMission 0
scalar OsgEarthNet.uav[23] utilizationEnergyOverdrawMaintenance 0
scalar OsgEarthNet.uav[23] utilizationCountMissions 23
scalar OsgEarthNet.uav[23] utilizationCountManeuversMission 269
scalar OsgEarthNet.uav[23] utilizationCountManeuversMaintenance 46
scalar OsgEarthNet.uav[23] utilizationCountChargeState 23
scalar OsgEarthNet.uav[23] utilizationCountOverdrawnAfterMission 0
scalar OsgEarthNet.uav[23] utilizationCountIdleState 24
scalar OsgEarthNet.uav[23] utilizationFail 0
scalar OsgEarthNet.uav[23] simulationTime 259200
scalar OsgEarthNet.uav[24] utilizationSecMission 29537.875602019
scalar OsgEarthNet.uav[24] utilizationSecMaintenance 16697.625061962
scalar OsgEarthNet.uav[24] utilizationSecCharge 169412.49833602
scalar OsgEarthNet.uav[24] utilizationSecIdle 43552
scalar OsgEarthNet.uav[24] utilizationEnergyMission 137461.99222565
scalar OsgEarthNet.uav[24] utilizationEnergyMaintenance 77407.023719788
scalar OsgEarthNet.uav[24] utilizationEnergyCharge 213337.59057617
scalar OsgEarthNet.uav[24] utilizationEnergyOverdrawMission 0
scalar OsgEarthNet.uav[24] utilizationEnergyOverdrawMaintenance 0
scalar OsgEarthNet.uav[24] utilizationCountMissions 46
scalar OsgEarthNet.uav[24] utilizationCountManeuversMission 469
scalar OsgEarthNet.uav[24] utilizationCountManeuversMaintenance 91
scalar OsgEarthNet.uav[24] utilizationCountChargeState 46
scalar OsgEarthNet.uav[24] utilizationCountOverdrawnAfterMission 0
scalar OsgEarthNet.uav[24] utilizationCountIdleState 46
scalar OsgEarthNet.uav[24] utilizationFail 0
scalar OsgEarthNet.uav[24] simulationTime 259200
scalar OsgEarthNet.uav[25] utilizationSecMission 18281.362558828
scalar OsgEarthNet.uav[25] utilizationSecMaintenance 8049.0142930204
scalar OsgEarthNet.uav[25] utilizationSecCharge 97110
scalar OsgEarthNet.uav[25] utilizationSecIdle 135759.62214815
scalar OsgEarthNet.uav[25] utilizationEnergyMission 84082.028579712
scalar OsgEarthNet.uav[25] utilizationEnergyMaintenance 37593.64289093
scalar OsgEarthNet.uav[25] utilizationEnergyCharge 121829.54980469
scalar OsgEarthNet.uav[25] utilizationEnergyOverdrawMission 0
scalar OsgEarthNet.uav[25] utilizationEnergyOverdrawMaintenance 0
scalar OsgEarthNet.uav[25] utilizationCountMissions 26
scalar OsgEarthNet.uav[25] utilizationCountManeuversMission 293
scalar OsgEarthNet.uav[25] utilizationCountManeuversMaintenance 52
scalar OsgEarthNet.uav[25] utilizationCountChargeState 26
scalar OsgEarthNet.uav[25] utilizationCountOverdrawnAfterMission 0
scalar OsgEarthNet.uav[25] utilizationCountIdleState 27
scalar OsgEarthNet.uav[25] utilizationFail 0
scalar OsgEarthNet.uav[25] simulationTime 259200
scalar OsgEarthNet.uav[26] utilizationSecMission 702.6942798579
scalar OsgEarthNet.uav[26] utilizationSecMaintenance 282.29565405678
scalar OsgEarthNet.uav[26] utilizationSecCharge 3630
scalar OsgEarthNet.uav[26] utilizationSecIdle 254585.00906609
scalar OsgEarthNet.uav[26] utilizationEnergyMission 3185.4888305664
scalar OsgEarthNet.uav[26] utilizationEnergyMaintenance 1373.2176322937
scalar OsgEarthNet.uav[26] utilizationEnergyCharge 4558.7080078125
scalar OsgEarthNet.uav[26] utilizationEnergyOverdrawMission 0
scalar OsgEarthNet.uav[26] utilizationEnergyOverdrawMaintenance 0
scalar OsgEarthNet.uav[26] utilizationCountMissions 1
scalar OsgEarthNet.uav[26] utilizationCountManeuversMission 10
scalar OsgEarthNet.uav[26] utilizationCountManeuversMaintenance 2
scalar OsgEarthNet.uav[26] utilizationCountChargeState 1
scalar OsgEarthNet.uav[26] utilizationCountOverdrawnAfterMission 0
scalar OsgEarthNet.uav[26] utilizationCountIdleState 2
scalar OsgEarthNet.uav[26] utilizationFail 0
scalar OsgEarthNet.uav[26] simulationTime 259200
scalar OsgEarthNet.uav[27] utilizationSecMission 29465.427407325
scalar OsgEarthNet.uav[27] utilizationSecMaintenance 16580.888860988
scalar OsgEarthNet.uav[27] utilizationSecCharge 169973.67479655
scalar OsgEarthNet.uav[27] utilizationSecIdle 43180.007935136
scalar OsgEarthNet.uav[27] utilizationEnergyMission 137332.90811539
scalar OsgEarthNet.uav[27] utilizationEnergyMaintenance 77596.280643463
scalar OsgEarthNet.uav[27] utilizationEnergyCharge 214192.17382812
scalar OsgEarthNet.uav[27] utilizationEnergyOverdrawMission 0
scalar OsgEarthNet.uav[27] utilizationEnergyOverdrawMaintenance 0
scalar OsgEarthNet.uav[27] utilizationCountMissions 46
scalar OsgEarthNet.uav[27] utilizationCountManeuversMission 485
scalar OsgEarthNet.uav[27] utilizationCountManeuversMaintenance 92
scalar OsgEarthNet.uav[27] utilizationCountChargeState 46
scalar OsgEarthNet.uav[27] utilizationCountOverdrawnAfterMission 0
scalar OsgEarthNet.uav[27] utilizationCountIdleState 46
scalar OsgEarthNet.uav[27] utilizationFail 0
scalar OsgEarthNet.uav[27] simulationTime 259200
scalar OsgEarthNet.uav[28] utilizationSecMission 31216.105105042
scalar OsgEarthNet.uav[28] utilizationSecMaintenance 14817.169474895
scalar OsgEarthNet.uav[28] utilizationSecCharge 168540.45564495
scalar OsgEarthNet.uav[28] utilizationSecIdle 44626.268775114
scalar OsgEarthNet.uav[28] utilizationEnergyMission 144110.23320007
scalar OsgEarthNet.uav[28] utilizationEnergyMaintenance 69979.827766418
scalar OsgEarthNet.uav[28] utilizationEnergyCharge 211759.28515625
scalar OsgEarthNet.uav[28] utilizationEnergyOverdrawMission 0
scalar OsgEarthNet.uav[28] utilizationEnergyOverdrawMaintenance 0
scalar OsgEarthNet.uav[28] utilizationCountMissions 46
scalar OsgEarthNet.uav[28] utilizationCountManeuversMission 513
scalar OsgEarthNet.uav[28] utilizationCountManeuversMaintenance 92
scalar OsgEarthNet.uav[28] utilizationCountChargeState 46
scalar OsgEarthNet.uav[28] utilizationCountOverdrawnAfterMission 0
scalar OsgEarthNet.uav[28] utilizationCountIdleState 46
scalar OsgEarthNet.uav[28] utilizationFail 0
scalar OsgEarthNet.uav[28] simulationTime 259200
scalar OsgEarthNet.uav[29] utilizationSecMission 684.4732299383
scalar OsgEarthNet.uav[29] utilizationSecMaintenance 298.56834692969
scalar OsgEarthNet.uav[29] utilizationSecCharge 3510
scalar OsgEarthNet.uav[29] utilizationSecIdle 254706.95742313
scalar OsgEarthNet.uav[29] utilizationEnergyMission 2882.8099212647
scalar OsgEarthNet.uav[29] utilizationEnergyMaintenance 1468.3399276733
scalar OsgEarthNet.uav[29] utilizationEnergyCharge 4351.1489257812
scalar OsgEarthNet.uav[29] utilizationEnergyOverdrawMission 0
scalar OsgEarthNet.uav[29] utilizationEnergyOverdrawMaintenance 0
scalar OsgEarthNet.uav[29] utilizationCountMissions 1
scalar OsgEarthNet.uav[29] utilizationCountManeuversMission 11
scalar OsgEarthNet.uav[29] utilizationCountManeuversMaintenance 2
scalar OsgEarthNet.uav[29] utilizationCountChargeState 1
scalar OsgEarthNet.uav[29] utilizationCountOverdrawnAfterMission 0
scalar OsgEarthNet.uav[29] utilizationCountIdleState 2
scalar OsgEarthNet.uav[29] utilizationFail 0
scalar OsgEarthNet.uav[29] simulationTime 259200
scalar OsgEarthNet.uav[30] utilizationSecMission 4846.6456356531
scalar OsgEarthNet.uav[30] utilizationSecMaintenance 1410.9107914423
scalar OsgEarthNet.uav[30] utilizationSecCharge 22570
scalar OsgEarthNet.uav[30] utilizationSecIdle 230372.4425729
scalar OsgEarthNet.uav[30] utilizationEnergyMission 21574.998016357
scalar OsgEarthNet.uav[30] utilizationEnergyMaintenance 6733.2099075317
scalar OsgEarthNet.uav[30] utilizationEnergyCharge 28491.75
scalar OsgEarthNet.uav[30] utilizationEnergyOverdrawMission 0
scalar OsgEarthNet.uav[30] utilizationEnergyOverdrawMaintenance 0
scalar OsgEarthNet.uav[30] utilizationCountMissions 6
scalar OsgEarthNet.uav[30] utilizationCountManeuversMission 77
scalar OsgEarthNet.uav[30] utilizationCountManeuversMaintenance 12
scalar OsgEarthNet.uav[30] utilizationCountChargeState 6
scalar OsgEarthNet.uav[30] utilizationCountOverdrawnAfterMission 0
scalar OsgEarthNet.uav[30] utilizationCountIdleState 7
scalar OsgEarthNet.uav[30] utilizationFail 0
scalar OsgEarthNet.uav[30] simulationTime 259200
scalar OsgEarthNet.uav[31] utilizationSecMission 32363.426375337
scalar OsgEarthNet.uav[31] utilizationSecMaintenance 13545.516820702
scalar OsgEarthNet.uav[31] utilizationSecCharge 168530
scalar OsgEarthNet.uav[31] utilizationSecIdle 44761.055803961
scalar OsgEarthNet.uav[31] utilizationEnergyMission 149700.818893
scalar OsgEarthNet.uav[31] utilizationEnergyMaintenance 64346.048088074
scalar OsgEarthNet.uav[31] utilizationEnergyCharge 211873.27734375
scalar OsgEarthNet.uav[31] utilizationEnergyOverdrawMission 0
scalar OsgEarthNet.uav[31] utilizationEnergyOverdrawMaintenance 0
scalar OsgEarthNet.uav[31] utilizationCountMissions 45
scalar OsgEarthNet.uav[31] utilizationCountManeuversMission 530
scalar OsgEarthNet.uav[31] utilizationCountManeuversMaintenance 91
scalar OsgEarthNet.uav[31] utilizationCountChargeState 45
scalar OsgEarthNet.uav[31] utilizationCountOverdrawnAfterMission 0
scalar OsgEarthNet.uav[31] utilizationCountIdleState 46
scalar OsgEarthNet.uav[31] utilizationFail 0
scalar OsgEarthNet.uav[31] simulationTime 259200
scalar OsgEarthNet.uav[32] utilizationSecMission 29370.727792317
scalar OsgEarthNet.uav[32] utilizationSecMaintenance 12727.018449514
scalar OsgEarthNet.uav[32] utilizationSecCharge 154445.90253735
scalar OsgEarthNet.uav[32] utilizationSecIdle 62656.350220821
scalar OsgEarthNet.uav[32] utilizationEnergyMission 135147.36234283
scalar OsgEarthNet.uav[32] utilizationEnergyMaintenance 60991.33455658
scalar OsgEarthNet.uav[32] utilizationEnergyCharge 194507.36572266
scalar OsgEarthNet.uav[32] utilizationEnergyOverdrawMission 0
scalar OsgEarthNet.uav[32] utilizationEnergyOverdrawMaintenance 0
scalar OsgEarthNet.uav[32] utilizationCountMissions 42
scalar OsgEarthNet.uav[32] utilizationCountManeuversMission 488
scalar OsgEarthNet.uav[32] utilizationCountManeuversMaintenance 84
scalar OsgEarthNet.uav[32] utilizationCountChargeState 42
scalar OsgEarthNet.uav[32] utilizationCountOverdrawnAfterMission 0
scalar OsgEarthNet.uav[32] utilizationCountIdleState 42
scalar OsgEarthNet.uav[32] utilizationFail 0
scalar OsgEarthNet.uav[32] simulationTime 259200
scalar OsgEarthNet.uav[33] utilizationSecMission 29604.68600695
scalar OsgEarthNet.uav[33] utilizationSecMaintenance 16320.73534536
scalar OsgEarthNet.uav[33] utilizationSecCharge 170102.57764769
scalar OsgEarthNet.uav[33] utilizationSecIdle 43172
scalar OsgEarthNet.uav[33] utilizationEnergyMission 136943.87576294
scalar OsgEarthNet.uav[33] utilizationEnergyMaintenance 76198.599388123
scalar OsgEarthNet.uav[33] utilizationEnergyCharge 212973.09912109
scalar OsgEarthNet.uav[33] utilizationEnergyOverdrawMission 0
scalar OsgEarthNet.uav[33] utilizationEnergyOverdrawMaintenance 0
scalar OsgEarthNet.uav[33] utilizationCountMissions 46
scalar OsgEarthNet.uav[33] utilizationCountManeuversMission 500
scalar OsgEarthNet.uav[33] utilizationCountManeuversMaintenance 91
scalar OsgEarthNet.uav[33] utilizationCountChargeState 46
scalar OsgEarthNet.uav[33] utilizationCountOverdrawnAfterMission 0
scalar OsgEarthNet.uav[33] utilizationCountIdleState 46
scalar OsgEarthNet.uav[33] utilizationFail 0
scalar OsgEarthNet.uav[33] simulationTime 259200
scalar OsgEarthNet.uav[34] utilizationSecMission 31302.016982744
scalar OsgEarthNet.uav[34] utilizationSecMaintenance 13321.296800521
scalar OsgEarthNet.uav[34] utilizationSecCharge 163170.33895534
scalar OsgEarthNet.uav[34] utilizationSecIdle 51406.346261394
scalar OsgEarthNet.uav[34] utilizationEnergyMission 145081.9836235
scalar OsgEarthNet.uav[34] utilizationEnergyMaintenance 62780.549739838
scalar OsgEarthNet.uav[34] utilizationEnergyCharge 205941.54101562
scalar OsgEarthNet.uav[34] utilizationEnergyOverdrawMission 0
scalar OsgEarthNet.uav[34] utilizationEnergyOverdrawMaintenance 0
scalar OsgEarthNet.uav[34] utilizationCountMissions 44
scalar OsgEarthNet.uav[34] utilizationCountManeuversMission 535
scalar OsgEarthNet.uav[34] utilizationCountManeuversMaintenance 88
scalar OsgEarthNet.uav[34] utilizationCountChargeState 44
scalar OsgEarthNet.uav[34] utilizationCountOverdrawnAfterMission 0
scalar OsgEarthNet.uav[34] utilizationCountIdleState 44
scalar OsgEarthNet.uav[34] utilizationFail 0
scalar OsgEarthNet.uav[34] simulationTime 259200
scalar OsgEarthNet.uav[35] utilizationSecMission 24442.674770863
scalar OsgEarthNet.uav[35] utilizationSecMaintenance 11078.125442676
scalar OsgEarthNet.uav[35] utilizationSecCharge 127498.4907291
scalar OsgEarthNet.uav[35] utilizationSecIdle 96180.708057366
scalar OsgEarthNet.uav[35] utilizationEnergyMission 112825.65101624
scalar OsgEarthNet.uav[35] utilizationEnergyMaintenance 51345.619419098
scalar OsgEarthNet.uav[35] utilizationEnergyCharge 160005.3949585
scalar OsgEarthNet.uav[35] utilizationEnergyOverdrawMission 0
scalar OsgEarthNet.uav[35] utilizationEnergyOverdrawMaintenance 0
scalar OsgEarthNet.uav[35] utilizationCountMissions 35
scalar OsgEarthNet.uav[35] utilizationCountManeuversMission 401
scalar OsgEarthNet.uav[35] utilizationCountManeuversMaintenance 70
scalar OsgEarthNet.uav[35] utilizationCountChargeState 35
scalar OsgEarthNet.uav[35] utilizationCountOverdrawnAfterMission 0
scalar OsgEarthNet.uav[35] utilizationCountIdleState 35
scalar OsgEarthNet.uav[35] utilizationFail 0
scalar OsgEarthNet.uav[35] simulationTime 259200
scalar OsgEarthNet.uav[36] utilizationSecMission 8241.4490883559
scalar OsgEarthNet.uav[36] utilizationSecMaintenance 4033.5799169917
scalar OsgEarthNet.uav[36] utilizationSecCharge 45384.725094839
scalar OsgEarthNet.uav[36] utilizationSecIdle 201540.24489981
scalar OsgEarthNet.uav[36] utilizationEnergyMission 38513.025588989
scalar OsgEarthNet.uav[36] utilizationEnergyMaintenance 19154.998241425
scalar OsgEarthNet.uav[36] utilizationEnergyCharge 57444.998046875
scalar OsgEarthNet.uav[36] utilizationEnergyOverdrawMission 0
scalar OsgEarthNet.uav[36] utilizationEnergyOverdrawMaintenance 0
scalar OsgEarthNet.uav[36] utilizationCountMissions 12
scalar OsgEarthNet.uav[36] utilizationCountManeuversMission 138
scalar OsgEarthNet.uav[36] utilizationCountManeuversMaintenance 24
scalar OsgEarthNet.uav[36] utilizationCountChargeState 12
scalar OsgEarthNet.uav[36] utilizationCountOverdrawnAfterMission 0
scalar OsgEarthNet.uav[36] utilizationCountIdleState 12
scalar OsgEarthNet.uav[36] utilizationFail 0
scalar OsgEarthNet.uav[36] simulationTime 259200
scalar OsgEarthNet.uav[37] utilizationSecMission 30122.698213677
scalar OsgEarthNet.uav[37] utilizationSecMaintenance 12742.827245217
scalar OsgEarthNet.uav[37] utilizationSecCharge 157020.14271351
scalar OsgEarthNet.uav[37] utilizationSecIdle 59314.330827595
scalar OsgEarthNet.uav[37] utilizationEnergyMission 140109.06719208
scalar OsgEarthNet.uav[37] utilizationEnergyMaintenance 60999.674324036
scalar OsgEarthNet.uav[37] utilizationEnergyCharge 197146.84832764
scalar OsgEarthNet.uav[37] utilizationEnergyOverdrawMission 0
scalar OsgEarthNet.uav[37] utilizationEnergyOverdrawMaintenance 0
scalar OsgEarthNet.uav[37] utilizationCountMissions 43
scalar OsgEarthNet.uav[37] utilizationCountManeuversMission 482
scalar OsgEarthNet.uav[37] utilizationCountManeuversMaintenance 86
scalar OsgEarthNet.uav[37] utilizationCountChargeState 43
scalar OsgEarthNet.uav[37] utilizationCountOverdrawnAfterMission 0
scalar OsgEarthNet.uav[37] utilizationCountIdleState 43
scalar OsgEarthNet.uav[37] utilizationFail 0
scalar OsgEarthNet.uav[37] simulationTime 259200
scalar OsgEarthNet.uav[38] utilizationSecMission 31977.930066661
scalar OsgEarthNet.uav[38] utilizationSecMaintenance 12894.897321772
scalar OsgEarthNet.uav[38] utilizationSecCharge 164580
scalar OsgEarthNet.uav[38] utilizationSecIdle 49747.171611567
scalar OsgEarthNet.uav[38] utilizationEnergyMission 145569.62162781
scalar OsgEarthNet.uav[38] utilizationEnergyMaintenance 60937.76499939
scalar OsgEarthNet.uav[38] utilizationEnergyCharge 206484.81640625
scalar OsgEarthNet.uav[38] utilizationEnergyOverdrawMission 0
scalar OsgEarthNet.uav[38] utilizationEnergyOverdrawMaintenance 0
scalar OsgEarthNet.uav[38] utilizationCountMissions 44
scalar OsgEarthNet.uav[38] utilizationCountManeuversMission 525
scalar OsgEarthNet.uav[38] utilizationCountManeuversMaintenance 88
scalar OsgEarthNet.uav[38] utilizationCountChargeState 44
scalar OsgEarthNet.uav[38] utilizationCountOverdrawnAfterMission 0
scalar OsgEarthNet.uav[38] utilizationCountIdleState 45
scalar OsgEarthNet.uav[38] utilizationFail 0
scalar OsgEarthNet.uav[38] simulationTime 259200
scalar OsgEarthNet.uav[39] utilizationSecMission 29234.576249529
scalar OsgEarthNet.uav[39] utilizationSecMaintenance 11828.53011488
scalar OsgEarthNet.uav[39] utilizationSecCharge 151635.07090732
scalar OsgEarthNet.uav[39] utilizationSecIdle 66501.821728269
scalar OsgEarthNet.uav[39] utilizationEnergyMission 136166.07912064
scalar OsgEarthNet.uav[39] utilizationEnergyMaintenance 54904.165599823
scalar OsgEarthNet.uav[39] utilizationEnergyCharge 191221.17626953
scalar OsgEarthNet.uav[39] utilizationEnergyOverdrawMission 0
scalar OsgEarthNet.uav[39] utilizationEnergyOverdrawMaintenance 0
scalar OsgEarthNet.uav[39] utilizationCountMissions 41
scalar OsgEarthNet.uav[39] utilizationCountManeuversMission 493
scalar OsgEarthNet.uav[39] utilizationCountManeuversMaintenance 82
scalar OsgEarthNet.uav[39] utilizationCountChargeState 41
scalar OsgEarthNet.uav[39] utilizationCountOverdrawnAfterMission 0
scalar OsgEarthNet.uav[39] utilizationCountIdleState 41
scalar OsgEarthNet.uav[39] utilizationFail 0
scalar OsgEarthNet.uav[39] simulationTime 259200
scalar OsgEarthNet.uav[40] utilizationSecMission 31239.855558168
scalar OsgEarthNet.uav[40] utilizationSecMaintenance 15187.015845448
scalar OsgEarthNet.uav[40] utilizationSecCharge 171031.12759638
scalar OsgEarthNet.uav[40] utilizationSecIdle 41742
scalar OsgEarthNet.uav[40] utilizationEnergyMission 144701.39685568
scalar OsgEarthNet.uav[40] utilizationEnergyMaintenance 70561.3372612
scalar OsgEarthNet.uav[40] utilizationEnergyCharge 214633.37109375
scalar OsgEarthNet.uav[40] utilizationEnergyOverdrawMission 0
scalar OsgEarthNet.uav[40] utilizationEnergyOverdrawMaintenance 0
scalar OsgEarthNet.uav[40] utilizationCountMissions 46
scalar OsgEarthNet.uav[40] utilizationCountManeuversMission 523
scalar OsgEarthNet.uav[40] utilizationCountManeuversMaintenance 91
scalar OsgEarthNet.uav[40] utilizationCountChargeState 46
scalar OsgEarthNet.uav[40] utilizationCountOverdrawnAfterMission 0
scalar OsgEarthNet.uav[40] utilizationCountIdleState 46
scalar OsgEarthNet.uav[40] utilizationFail 0
scalar OsgEarthNet.uav[40] simulationTime 259200
scalar OsgEarthNet.uav[41] utilizationSecMission 29348.577220075
scalar OsgEarthNet.uav[41] utilizationSecMaintenance 14288.515032369
scalar OsgEarthNet.uav[41] utilizationSecCharge 159540
scalar OsgEarthNet.uav[41] utilizationSecIdle 56022.906747555
scalar OsgEarthNet.uav[41] utilizationEnergyMission 136823.11013332
scalar OsgEarthNet.uav[41] utilizationEnergyMaintenance 66618.296081543
scalar OsgEarthNet.uav[41] utilizationEnergyCharge 199742.22998047
scalar OsgEarthNet.uav[41] utilizationEnergyOverdrawMission 0
scalar OsgEarthNet.uav[41] utilizationEnergyOverdrawMaintenance 0
scalar OsgEarthNet.uav[41] utilizationCountMissions 43
scalar OsgEarthNet.uav[41] utilizationCountManeuversMission 483
scalar OsgEarthNet.uav[41] utilizationCountManeuversMaintenance 87
scalar OsgEarthNet.uav[41] utilizationCountChargeState 43
scalar OsgEarthNet.uav[41] utilizationCountOverdrawnAfterMission 0
scalar OsgEarthNet.uav[41] utilizationCountIdleState 44
scalar OsgEarthNet.uav[41] utilizationFail 0
scalar OsgEarthNet.uav[41] simulationTime 259200
scalar OsgEarthNet.uav[42] utilizationSecMission 23840.208464738
scalar OsgEarthNet.uav[42] utilizationSecMaintenance 12224.776498351
scalar OsgEarthNet.uav[42] utilizationSecCharge 133560
scalar OsgEarthNet.uav[42] utilizationSecIdle 89575.01403691
scalar OsgEarthNet.uav[42] utilizationEnergyMission 109563.39167786
scalar OsgEarthNet.uav[42] utilizationEnergyMaintenance 57523.155899048
scalar OsgEarthNet.uav[42] utilizationEnergyCharge 167179.28466797
scalar OsgEarthNet.uav[42] utilizationEnergyOverdrawMission 0
scalar OsgEarthNet.uav[42] utilizationEnergyOverdrawMaintenance 0
scalar OsgEarthNet.uav[42] utilizationCountMissions 36
scalar OsgEarthNet.uav[42] utilizationCountManeuversMission 397
scalar OsgEarthNet.uav[42] utilizationCountManeuversMaintenance 72
scalar OsgEarthNet.uav[42] utilizationCountChargeState 36
scalar OsgEarthNet.uav[42] utilizationCountOverdrawnAfterMission 0
scalar OsgEarthNet.uav[42] utilizationCountIdleState 37
scalar OsgEarthNet.uav[42] utilizationFail 0
scalar OsgEarthNet.uav[42] simulationTime 259200
scalar OsgEarthNet.uav[43] utilizationSecMission 23558.075936653
scalar OsgEarthNet.uav[43] utilizationSecMaintenance 11977.621560108
scalar OsgEarthNet.uav[43] utilizationSecCharge 127380
scalar OsgEarthNet.uav[43] utilizationSecIdle 96284.301503239
scalar OsgEarthNet.uav[43] utilizationEnergyMission 107668.6606359
scalar OsgEarthNet.uav[43] utilizationEnergyMaintenance 56220.066699982
scalar OsgEarthNet.uav[43] utilizationEnergyCharge 160030.1171875
scalar OsgEarthNet.uav[43] utilizationEnergyOverdrawMission 0
scalar OsgEarthNet.uav[43] utilizationEnergyOverdrawMaintenance 0
scalar OsgEarthNet.uav[43] utilizationCountMissions 34
scalar OsgEarthNet.uav[43] utilizationCountManeuversMission 372
scalar OsgEarthNet.uav[43] utilizationCountManeuversMaintenance 69
scalar OsgEarthNet.uav[43] utilizationCountChargeState 34
scalar OsgEarthNet.uav[43] utilizationCountOverdrawnAfterMission 0
scalar OsgEarthNet.uav[43] utilizationCountIdleState 35
scalar OsgEarthNet.uav[43] utilizationFail 0
scalar OsgEarthNet.uav[43] simulationTime 259200
scalar OsgEarthNet.uav[44] utilizationSecMission 29527.109374538
scalar OsgEarthNet.uav[44] utilizationSecMaintenance 15252.412106646
scalar OsgEarthNet.uav[44] utilizationSecCharge 164460
scalar OsgEarthNet.uav[44] utilizationSecIdle 49960.477518816
scalar OsgEarthNet.uav[44] utilizationEnergyMission 136012.4465332
scalar OsgEarthNet.uav[44] utilizationEnergyMaintenance 71021.089103667
scalar OsgEarthNet.uav[44] utilizationEnergyCharge 206534.96289062
scalar OsgEarthNet.uav[44] utilizationEnergyOverdrawMission 0
scalar OsgEarthNet.uav[44] utilizationEnergyOverdrawMaintenance 0
scalar OsgEarthNet.uav[44] utilizationCountMissions 44
scalar OsgEarthNet.uav[44] utilizationCountManeuversMission 481
scalar OsgEarthNet.uav[44] utilizationCountManeuversMaintenance 89
scalar OsgEarthNet.uav[44] utilizationCountChargeState 44
scalar OsgEarthNet.uav[44] utilizationCountOverdrawnAfterMission 0
scalar OsgEarthNet.uav[44] utilizationCountIdleState 45
scalar OsgEarthNet.uav[44] utilizationFail 0
scalar OsgEarthNet.uav[44] simulationTime 259200
scalar OsgEarthNet.uav[45] utilizationSecMission 28399.137980502
scalar OsgEarthNet.uav[45] utilizationSecMaintenance 15318.090053249
scalar OsgEarthNet.uav[45] utilizationSecCharge 160480.06829853
scalar OsgEarthNet.uav[45] utilizationSecIdle 55002.702667718
scalar OsgEarthNet.uav[45] utilizationEnergyMission 131441.49660492
scalar OsgEarthNet.uav[45] utilizationEnergyMaintenance 71328.128051758
scalar OsgEarthNet.uav[45] utilizationEnergyCharge 201139.33642578
scalar OsgEarthNet.uav[45] utilizationEnergyOverdrawMission 0
scalar OsgEarthNet.uav[45] utilizationEnergyOverdrawMaintenance 0
scalar OsgEarthNet.uav[45] utilizationCountMissions 44
scalar OsgEarthNet.uav[45] utilizationCountManeuversMission 461
scalar OsgEarthNet.uav[45] utilizationCountManeuversMaintenance 88
scalar OsgEarthNet.uav[45] utilizationCountChargeState 44
scalar OsgEarthNet.uav[45] utilizationCountOverdrawnAfterMission 0
scalar OsgEarthNet.uav[45] utilizationCountIdleState 44
scalar OsgEarthNet.uav[45] utilizationFail 0
scalar OsgEarthNet.uav[45] simulationTime 259200
scalar OsgEarthNet.uav[46] utilizationSecMission 26858.019928059
scalar OsgEarthNet.uav[46] utilizationSecMaintenance 13466.238010271
scalar OsgEarthNet.uav[46] utilizationSecCharge 149780
scalar OsgEarthNet.uav[46] utilizationSecIdle 69095.74106167
scalar OsgEarthNet.uav[46] utilizationEnergyMission 125149.15736389
scalar OsgEarthNet.uav[46] utilizationEnergyMaintenance 63521.864253998
scalar OsgEarthNet.uav[46] utilizationEnergyCharge 188292.50439453
scalar OsgEarthNet.uav[46] utilizationEnergyOverdrawMission 0
scalar OsgEarthNet.uav[46] utilizationEnergyOverdrawMaintenance 0
scalar OsgEarthNet.uav[46] utilizationCountMissions 40
scalar OsgEarthNet.uav[46] utilizationCountManeuversMission 440
scalar OsgEarthNet.uav[46] utilizationCountManeuversMaintenance 80
scalar OsgEarthNet.uav[46] utilizationCountChargeState 40
scalar OsgEarthNet.uav[46] utilizationCountOverdrawnAfterMission 0
scalar OsgEarthNet.uav[46] utilizationCountIdleState 41
scalar OsgEarthNet.uav[46] utilizationFail 0
scalar OsgEarthNet.uav[46] simulationTime 259200
scalar OsgEarthNet.uav[47] utilizationSecMission 30173.359798178
scalar OsgEarthNet.uav[47] utilizationSecMaintenance 16219.324115608
scalar OsgEarthNet.uav[47] utilizationSecCharge 171200
scalar OsgEarthNet.uav[47] utilizationSecIdle 41607.315086215
scalar OsgEarthNet.uav[47] utilizationEnergyMission 139143.65506744
scalar OsgEarthNet.uav[47] utilizationEnergyMaintenance 75805.265565723
scalar OsgEarthNet.uav[47] utilizationEnergyCharge 214796.05371094
scalar OsgEarthNet.uav[47] utilizationEnergyOverdrawMission 0
scalar OsgEarthNet.uav[47] utilizationEnergyOverdrawMaintenance 0
scalar OsgEarthNet.uav[47] utilizationCountMissions 46
scalar OsgEarthNet.uav[47] utilizationCountManeuversMission 485
scalar OsgEarthNet.uav[47] utilizationCountManeuversMaintenance 93
scalar OsgEarthNet.uav[47] utilizationCountChargeState 46
scalar OsgEarthNet.uav[47] utilizationCountOverdrawnAfterMission 0
scalar OsgEarthNet.uav[47] utilizationCountIdleState 47
scalar OsgEarthNet.uav[47] utilizationFail 0
scalar OsgEarthNet.uav[47] simulationTime 259200
scalar OsgEarthNet.uav[48] utilizationSecMission 26498.396683117
scalar OsgEarthNet.uav[48] utilizationSecMaintenance 13696.695787979
scalar OsgEarthNet.uav[48] utilizationSecCharge 148642.9065289
scalar OsgEarthNet.uav[48] utilizationSecIdle 70362
scalar OsgEarthNet.uav[48] utilizationEnergyMission 123316.55863501
scalar OsgEarthNet.uav[48] utilizationEnergyMaintenance 64012.179870605
scalar OsgEarthNet.uav[48] utilizationEnergyCharge 187115.3671875
scalar OsgEarthNet.uav[48] utilizationEnergyOverdrawMission 0
scalar OsgEarthNet.uav[48] utilizationEnergyOverdrawMaintenance 0
scalar OsgEarthNet.uav[48] utilizationCountMissions 40
scalar OsgEarthNet.uav[48] utilizationCountManeuversMission 435
scalar OsgEarthNet.uav[48] utilizationCountManeuversMaintenance 79
scalar OsgEarthNet.uav[48] utilizationCountChargeState 40
scalar OsgEarthNet.uav[48] utilizationCountOverdrawnAfterMission 0
scalar OsgEarthNet.uav[48] utilizationCountIdleState 39
scalar OsgEarthNet.uav[48] utilizationFail 0
scalar OsgEarthNet.uav[48] simulationTime 259200
scalar OsgEarthNet.uav[49] utilizationSecMission 18799.275182098
scalar OsgEarthNet.uav[49] utilizationSecMaintenance 11603.93693201
scalar OsgEarthNet.uav[49] utilizationSecCharge 108829.77956205
scalar OsgEarthNet.uav[49] utilizationSecIdle 119967.00732384
scalar OsgEarthNet.uav[49] utilizationEnergyMission 86235.888435364
scalar OsgEarthNet.uav[49] utilizationEnergyMaintenance 53805.258308411
scalar OsgEarthNet.uav[49] utilizationEnergyCharge 136768.61791992
scalar OsgEarthNet.uav[49] utilizationEnergyOverdrawMission 0
scalar OsgEarthNet.uav[49] utilizationEnergyOverdrawMaintenance 0
scalar OsgEarthNet.uav[49] utilizationCountMissions 30
scalar OsgEarthNet.uav[49] utilizationCountManeuversMission 306
scalar OsgEarthNet.uav[49] utilizationCountManeuversMaintenance 60
scalar OsgEarthNet.uav[49] utilizationCountChargeState 30
scalar OsgEarthNet.uav[49] utilizationCountOverdrawnAfterMission 0
scalar OsgEarthNet.uav[49] utilizationCountIdleState 30
scalar OsgEarthNet.uav[49] utilizationFail 0
scalar OsgEarthNet.uav[49] simulationTime 259200
scalar OsgEarthNet.cs[0] usedPower 522517.58460152
scalar OsgEarthNet.cs[0] chargedPower 522517.58460152
scalar OsgEarthNet.cs[0] chargedMobileNodes 111
scalar OsgEarthNet.cs[0] reservations 113
scalar OsgEarthNet.cs[1] usedPower 1130871.577369
scalar OsgEarthNet.cs[1] chargedPower 1130871.577369
scalar OsgEarthNet.cs[1] chargedMobileNodes 239
scalar OsgEarthNet.cs[1] reservations 244
scalar OsgEarthNet.cs[2] usedPower 2587558.8014698
scalar OsgEarthNet.cs[2] chargedPower 2587558.8014698
scalar OsgEarthNet.cs[2] chargedMobileNodes 546
scalar OsgEarthNet.cs[2] reservations 553
scalar OsgEarthNet.cs[3] usedPower 827881.00161952
scalar OsgEarthNet.cs[3] chargedPower 827881.00161952
scalar OsgEarthNet.cs[3] chargedMobileNodes 174
scalar OsgEarthNet.cs[3] reservations 180
scalar OsgEarthNet.cs[4] usedPower 748364.09834422
scalar OsgEarthNet.cs[4] chargedPower 748364.09834422
scalar OsgEarthNet.cs[4] chargedMobileNodes 162
scalar OsgEarthNet.cs[4] reservations 164
scalar OsgEarthNet.cs[5] usedPower 474734.17806564
scalar OsgEarthNet.cs[5] chargedPower 474734.17806564
scalar OsgEarthNet.cs[5] chargedMobileNodes 100
scalar OsgEarthNet.cs[5] reservations 100
scalar OsgEarthNet.cs[6] usedPower 2528313.3543453
scalar OsgEarthNet.cs[6] chargedPower 2528313.3543453
scalar OsgEarthNet.cs[6] chargedMobileNodes 538
scalar OsgEarthNet.cs[6] reservations 546

