version 2
run Szenario_Hotel_Gabelbach-21-20180710-12:44:41-30832
attr configname Szenario_Hotel_Gabelbach
attr datetime 20180710-12:44:41
attr experiment Szenario_Hotel_Gabelbach
attr inifile omnetpp.ini
attr iterationvars "$numUAVs=50, $replM=0, $replSearchM=1"
attr iterationvarsf numUAVs=50,replM=0,replSearchM=1-
attr measurement "$numUAVs=50, $replM=0, $replSearchM=1"
attr network OsgEarthNet
attr processid 30832
attr repetition 5
attr replication #5
attr resultdir results
attr runnumber 21
attr seedset 21
itervar numUAVs 50
itervar replM 0
itervar replSearchM 1
param *.osgEarthScene.scene "\"Szenario_Hotel_Gabelbach.earth\""
param *.playgroundLatitude 50.6830269
param *.playgroundLongitude 10.8538055
param *.playgroundWidth 3500m
param *.playgroundHeight 3500m
param *.cs[0].posX 3537m
param *.cs[0].posY 965m
param *.cs[0].posZ 538m
param *.cs[1].posX 312m
param *.cs[1].posY 1262m
param *.cs[1].posZ 539m
param *.cs[2].posX 2185m
param *.cs[2].posY 3026m
param *.cs[2].posZ 777m
param *.cs[3].posX 10m
param *.cs[3].posY 2200m
param *.cs[3].posZ 560m
param *.cs[4].posX 750m
param *.cs[4].posY 200m
param *.cs[4].posZ 540m
param *.cs[5].posX 2450m
param *.cs[5].posY 180m
param *.cs[5].posZ 524m
param *.cs[6].posX 3140m
param *.cs[6].posY 1790m
param *.cs[6].posZ 606m
param *.numCSs 7
param *.numUAVs 50
param *.uav[*].replacementMethod 0
param *.missionControl.replacementSearchMethod 1
param *.*.timeStep 10s
param *.uav[*].commandPreviewCommandCount 20
param *.missionControl.missionFiles "\"missions\\\\Szenario_WB_Hotel_Gabelbach_Mission_Hotel.waypoints,missions\\\\Szenario_WB_Hotel_Gabelbach_Mission_Kickelhahn.waypoints,missions\\\\Szenario_WB_Hotel_Gabelbach_Mission_Ilmenau_Sportplatz.waypoints,missions\\\\Szenario_WB_Hotel_Gabelbach_Mission_Manebach_Mitte.waypoints,missions\\\\Szenario_WB_Hotel_Gabelbach_Mission_Manebach_Sued.waypoints\""
param *.missionControl.missionFiles "\"missions\\\\Szenario_WB_Hotel_Gabelbach_Mission_Hotel.waypoints,missions\\\\Szenario_WB_Hotel_Gabelbach_Mission_Kickelhahn.waypoints,missions\\\\Szenario_WB_Hotel_Gabelbach_Mission_Ilmenau_Sportplatz.waypoints,missions\\\\Szenario_WB_Hotel_Gabelbach_Mission_Manebach_Mitte.waypoints,missions\\\\Szenario_WB_Hotel_Gabelbach_Mission_Manebach_Sued.waypoints,missions\\\\Szenario_WB_Hotel_Gabelbach_Hover_HoheSchlaufe.waypoints,missions\\\\Szenario_WB_Hotel_Gabelbach_Hover_Kickelhahn.waypoints,missions\\\\Szenario_WB_Hotel_Gabelbach_Hover_Gabelbachskopf.waypoints,missions\\\\Szenario_WB_Hotel_Gabelbach_Hover_Dachskopf.waypoints\""
param *.uav[0].startX 3537m
param *.uav[0].startY 965m
param *.uav[0].startZ 539m
param *.uav[1].startX 312m
param *.uav[1].startY 1262m
param *.uav[1].startZ 540m
param *.uav[2].startX 2185m
param *.uav[2].startY 3026m
param *.uav[2].startZ 778m
param *.uav[3].startX 3537m
param *.uav[3].startY 965m
param *.uav[3].startZ 539m
param *.uav[4].startX 312m
param *.uav[4].startY 1262m
param *.uav[4].startZ 540m
param *.uav[5].startX 2185m
param *.uav[5].startY 3026m
param *.uav[5].startZ 778m
param *.uav[6].startX 3537m
param *.uav[6].startY 965m
param *.uav[6].startZ 539m
param *.uav[7].startX 312m
param *.uav[7].startY 1262m
param *.uav[7].startZ 540m
param *.uav[8].startX 2185m
param *.uav[8].startY 3026m
param *.uav[8].startZ 778m
param *.uav[9].startX 3537m
param *.uav[9].startY 965m
param *.uav[9].startZ 539m
param *.uav[10].startX 3537m
param *.uav[10].startY 965m
param *.uav[10].startZ 539m
param *.uav[11].startX 312m
param *.uav[11].startY 1262m
param *.uav[11].startZ 540m
param *.uav[12].startX 2185m
param *.uav[12].startY 3026m
param *.uav[12].startZ 778m
param *.uav[13].startX 3537m
param *.uav[13].startY 965m
param *.uav[13].startZ 539m
param *.uav[14].startX 312m
param *.uav[14].startY 1262m
param *.uav[14].startZ 540m
param *.uav[15].startX 2185m
param *.uav[15].startY 3026m
param *.uav[15].startZ 778m
param *.uav[16].startX 3537m
param *.uav[16].startY 965m
param *.uav[16].startZ 539m
param *.uav[17].startX 312m
param *.uav[17].startY 1262m
param *.uav[17].startZ 540m
param *.uav[18].startX 2185m
param *.uav[18].startY 3026m
param *.uav[18].startZ 778m
param *.uav[19].startX 3537m
param *.uav[19].startY 965m
param *.uav[19].startZ 539m
param *.uav[20].startX 3537m
param *.uav[20].startY 965m
param *.uav[20].startZ 539m
param *.uav[21].startX 312m
param *.uav[21].startY 1262m
param *.uav[21].startZ 540m
param *.uav[22].startX 2185m
param *.uav[22].startY 3026m
param *.uav[22].startZ 778m
param *.uav[23].startX 3537m
param *.uav[23].startY 965m
param *.uav[23].startZ 539m
param *.uav[24].startX 312m
param *.uav[24].startY 1262m
param *.uav[24].startZ 540m
param *.uav[25].startX 2185m
param *.uav[25].startY 3026m
param *.uav[25].startZ 778m
param *.uav[26].startX 3537m
param *.uav[26].startY 965m
param *.uav[26].startZ 539m
param *.uav[27].startX 312m
param *.uav[27].startY 1262m
param *.uav[27].startZ 540m
param *.uav[28].startX 2185m
param *.uav[28].startY 3026m
param *.uav[28].startZ 778m
param *.uav[29].startX 3537m
param *.uav[29].startY 965m
param *.uav[29].startZ 539m
param *.uav[30].startX 3537m
param *.uav[30].startY 965m
param *.uav[30].startZ 539m
param *.uav[31].startX 312m
param *.uav[31].startY 1262m
param *.uav[31].startZ 540m
param *.uav[32].startX 2185m
param *.uav[32].startY 3026m
param *.uav[32].startZ 778m
param *.uav[33].startX 3537m
param *.uav[33].startY 965m
param *.uav[33].startZ 539m
param *.uav[34].startX 312m
param *.uav[34].startY 1262m
param *.uav[34].startZ 540m
param *.uav[35].startX 2185m
param *.uav[35].startY 3026m
param *.uav[35].startZ 778m
param *.uav[36].startX 3537m
param *.uav[36].startY 965m
param *.uav[36].startZ 539m
param *.uav[37].startX 312m
param *.uav[37].startY 1262m
param *.uav[37].startZ 540m
param *.uav[38].startX 2185m
param *.uav[38].startY 3026m
param *.uav[38].startZ 778m
param *.uav[39].startX 3537m
param *.uav[39].startY 965m
param *.uav[39].startZ 539m
param *.uav[40].startX 3537m
param *.uav[40].startY 965m
param *.uav[40].startZ 539m
param *.uav[41].startX 312m
param *.uav[41].startY 1262m
param *.uav[41].startZ 540m
param *.uav[42].startX 2185m
param *.uav[42].startY 3026m
param *.uav[42].startZ 778m
param *.uav[43].startX 3537m
param *.uav[43].startY 965m
param *.uav[43].startZ 539m
param *.uav[44].startX 312m
param *.uav[44].startY 1262m
param *.uav[44].startZ 540m
param *.uav[45].startX 2185m
param *.uav[45].startY 3026m
param *.uav[45].startZ 778m
param *.uav[46].startX 3537m
param *.uav[46].startY 965m
param *.uav[46].startZ 539m
param *.uav[47].startX 312m
param *.uav[47].startY 1262m
param *.uav[47].startZ 540m
param *.uav[48].startX 2185m
param *.uav[48].startY 3026m
param *.uav[48].startZ 778m
param *.uav[49].startX 3537m
param *.uav[49].startY 965m
param *.uav[49].startZ 539m
param *.uav[50].startX 3537m
param *.uav[50].startY 965m
param *.uav[50].startZ 539m
param *.uav[51].startX 312m
param *.uav[51].startY 1262m
param *.uav[51].startZ 540m
param *.uav[52].startX 2185m
param *.uav[52].startY 3026m
param *.uav[52].startZ 778m
param *.uav[53].startX 3537m
param *.uav[53].startY 965m
param *.uav[53].startZ 539m
param *.uav[54].startX 312m
param *.uav[54].startY 1262m
param *.uav[54].startZ 540m
param *.uav[55].startX 2185m
param *.uav[55].startY 3026m
param *.uav[55].startZ 778m
param *.uav[56].startX 3537m
param *.uav[56].startY 965m
param *.uav[56].startZ 539m
param *.uav[57].startX 312m
param *.uav[57].startY 1262m
param *.uav[57].startZ 540m
param *.uav[58].startX 2185m
param *.uav[58].startY 3026m
param *.uav[58].startZ 778m
param *.uav[59].startX 3537m
param *.uav[59].startY 965m
param *.uav[59].startZ 539m
param *.uav[60].startX 3537m
param *.uav[60].startY 965m
param *.uav[60].startZ 539m
param *.uav[61].startX 312m
param *.uav[61].startY 1262m
param *.uav[61].startZ 540m
param *.uav[62].startX 2185m
param *.uav[62].startY 3026m
param *.uav[62].startZ 778m
param *.uav[63].startX 3537m
param *.uav[63].startY 965m
param *.uav[63].startZ 539m
param *.uav[64].startX 312m
param *.uav[64].startY 1262m
param *.uav[64].startZ 540m
param *.uav[65].startX 2185m
param *.uav[65].startY 3026m
param *.uav[65].startZ 778m
param *.uav[66].startX 3537m
param *.uav[66].startY 965m
param *.uav[66].startZ 539m
param *.uav[67].startX 312m
param *.uav[67].startY 1262m
param *.uav[67].startZ 540m
param *.uav[68].startX 2185m
param *.uav[68].startY 3026m
param *.uav[68].startZ 778m
param *.uav[69].startX 3537m
param *.uav[69].startY 965m
param *.uav[69].startZ 539m
param *.uav[70].startX 3537m
param *.uav[70].startY 965m
param *.uav[70].startZ 539m
param *.uav[71].startX 312m
param *.uav[71].startY 1262m
param *.uav[71].startZ 540m
param *.uav[72].startX 2185m
param *.uav[72].startY 3026m
param *.uav[72].startZ 778m
param *.uav[73].startX 3537m
param *.uav[73].startY 965m
param *.uav[73].startZ 539m
param *.uav[74].startX 312m
param *.uav[74].startY 1262m
param *.uav[74].startZ 540m
param *.uav[75].startX 2185m
param *.uav[75].startY 3026m
param *.uav[75].startZ 778m
param *.uav[76].startX 3537m
param *.uav[76].startY 965m
param *.uav[76].startZ 539m
param *.uav[77].startX 312m
param *.uav[77].startY 1262m
param *.uav[77].startZ 540m
param *.uav[78].startX 2185m
param *.uav[78].startY 3026m
param *.uav[78].startZ 778m
param *.uav[79].startX 3537m
param *.uav[79].startY 965m
param *.uav[79].startZ 539m
param *.uav[80].startX 3537m
param *.uav[80].startY 965m
param *.uav[80].startZ 539m
param *.uav[81].startX 312m
param *.uav[81].startY 1262m
param *.uav[81].startZ 540m
param *.uav[82].startX 2185m
param *.uav[82].startY 3026m
param *.uav[82].startZ 778m
param *.uav[83].startX 3537m
param *.uav[83].startY 965m
param *.uav[83].startZ 539m
param *.uav[84].startX 312m
param *.uav[84].startY 1262m
param *.uav[84].startZ 540m
param *.uav[85].startX 2185m
param *.uav[85].startY 3026m
param *.uav[85].startZ 778m
param *.uav[86].startX 3537m
param *.uav[86].startY 965m
param *.uav[86].startZ 539m
param *.uav[87].startX 312m
param *.uav[87].startY 1262m
param *.uav[87].startZ 540m
param *.uav[88].startX 2185m
param *.uav[88].startY 3026m
param *.uav[88].startZ 778m
param *.uav[89].startX 3537m
param *.uav[89].startY 965m
param *.uav[89].startZ 539m
param *.uav[90].startX 3537m
param *.uav[90].startY 965m
param *.uav[90].startZ 539m
param *.uav[91].startX 312m
param *.uav[91].startY 1262m
param *.uav[91].startZ 540m
param *.uav[92].startX 2185m
param *.uav[92].startY 3026m
param *.uav[92].startZ 778m
param *.uav[93].startX 3537m
param *.uav[93].startY 965m
param *.uav[93].startZ 539m
param *.uav[94].startX 312m
param *.uav[94].startY 1262m
param *.uav[94].startZ 540m
param *.uav[95].startX 2185m
param *.uav[95].startY 3026m
param *.uav[95].startZ 778m
param *.uav[96].startX 3537m
param *.uav[96].startY 965m
param *.uav[96].startZ 539m
param *.uav[97].startX 312m
param *.uav[97].startY 1262m
param *.uav[97].startZ 540m
param *.uav[98].startX 2185m
param *.uav[98].startY 3026m
param *.uav[98].startZ 778m
param *.uav[99].startX 3537m
param *.uav[99].startY 965m
param *.uav[99].startZ 539m
param *.osgEarthScene.scene "\"boston.earth\""
param *.playgroundLatitude 42.3558
param *.playgroundLongitude -71.0677
param *.playgroundWidth 400m
param *.playgroundHeight 200m
param *.channelController.connectionColor "\"#0000FF40\""
param *.channelController.showConnections false
param *.uav[*].modelURL "\"quadrocopter.small.obj.15.scale.0,0,90.rot\""
param *.uav[*].labelColor "\"#FF7C00CC\""
param *.uav[*].label2Color "\"#FF7C00EE\""
param *.uav[*].batteryCapacity 5200mAh
param *.uav[*].batteryRemaining uav[index].batteryCapacity
param *.uav[*].predictionQuantile 0.95
param *.uav[*].replacementMethod 2
param *.uav[*].weightedSumWeight 0.5
param *.cs[*].modelURL "\"chargingstation_v1.osgt.2.scale.0,0,0.rot.0,0,-15e-1.trans\""
param *.cs[*].spotsWaiting 999
param *.cs[*].spotsCharging 999
param *.cs[*].chargeEffectivenessPercentage 100
param *.cs[*].nonLinearPhaseStartPercentage 85
param *.cs[*].chargeCurrent 6.0A
param *.cs[*].prioritizeFastCharge true
param *.missionControl.replacementSearchMethod 0
param *.*.timeStep 9s

scalar OsgEarthNet.uav[0] utilizationSecMission 2670.1644545269
scalar OsgEarthNet.uav[0] utilizationSecMaintenance 1286.1295406671
scalar OsgEarthNet.uav[0] utilizationSecCharge 14810
scalar OsgEarthNet.uav[0] utilizationSecIdle 240433.70500481
scalar OsgEarthNet.uav[0] utilizationEnergyMission 12360.751502991
scalar OsgEarthNet.uav[0] utilizationEnergyMaintenance 6126.4285545349
scalar OsgEarthNet.uav[0] utilizationEnergyCharge 18487.183105469
scalar OsgEarthNet.uav[0] utilizationEnergyOverdrawMission 0
scalar OsgEarthNet.uav[0] utilizationEnergyOverdrawMaintenance 0
scalar OsgEarthNet.uav[0] utilizationCountMissions 4
scalar OsgEarthNet.uav[0] utilizationCountManeuversMission 41
scalar OsgEarthNet.uav[0] utilizationCountManeuversMaintenance 8
scalar OsgEarthNet.uav[0] utilizationCountChargeState 4
scalar OsgEarthNet.uav[0] utilizationCountOverdrawnAfterMission 0
scalar OsgEarthNet.uav[0] utilizationCountIdleState 5
scalar OsgEarthNet.uav[0] utilizationFail 0
scalar OsgEarthNet.uav[0] simulationTime 259200
scalar OsgEarthNet.uav[1] utilizationSecMission 36395.886181026
scalar OsgEarthNet.uav[1] utilizationSecMaintenance 15927.014982024
scalar OsgEarthNet.uav[1] utilizationSecCharge 190686.7488671
scalar OsgEarthNet.uav[1] utilizationSecIdle 16190.348969852
scalar OsgEarthNet.uav[1] utilizationEnergyMission 168154.80017853
scalar OsgEarthNet.uav[1] utilizationEnergyMaintenance 74788.890670776
scalar OsgEarthNet.uav[1] utilizationEnergyCharge 241241.81591797
scalar OsgEarthNet.uav[1] utilizationEnergyOverdrawMission 0
scalar OsgEarthNet.uav[1] utilizationEnergyOverdrawMaintenance 0
scalar OsgEarthNet.uav[1] utilizationCountMissions 52
scalar OsgEarthNet.uav[1] utilizationCountManeuversMission 681
scalar OsgEarthNet.uav[1] utilizationCountManeuversMaintenance 104
scalar OsgEarthNet.uav[1] utilizationCountChargeState 52
scalar OsgEarthNet.uav[1] utilizationCountOverdrawnAfterMission 0
scalar OsgEarthNet.uav[1] utilizationCountIdleState 31
scalar OsgEarthNet.uav[1] utilizationFail 0
scalar OsgEarthNet.uav[1] simulationTime 259200
scalar OsgEarthNet.uav[2] utilizationSecMission 45771.461374645
scalar OsgEarthNet.uav[2] utilizationSecMaintenance 8177.102648418
scalar OsgEarthNet.uav[2] utilizationSecCharge 181635.08475612
scalar OsgEarthNet.uav[2] utilizationSecIdle 23616.350220821
scalar OsgEarthNet.uav[2] utilizationEnergyMission 208255.85124969
scalar OsgEarthNet.uav[2] utilizationEnergyMaintenance 36789.863967896
scalar OsgEarthNet.uav[2] utilizationEnergyCharge 242767.48937988
scalar OsgEarthNet.uav[2] utilizationEnergyOverdrawMission 0
scalar OsgEarthNet.uav[2] utilizationEnergyOverdrawMaintenance 0
scalar OsgEarthNet.uav[2] utilizationCountMissions 52
scalar OsgEarthNet.uav[2] utilizationCountManeuversMission 722
scalar OsgEarthNet.uav[2] utilizationCountManeuversMaintenance 104
scalar OsgEarthNet.uav[2] utilizationCountChargeState 52
scalar OsgEarthNet.uav[2] utilizationCountOverdrawnAfterMission 0
scalar OsgEarthNet.uav[2] utilizationCountIdleState 22
scalar OsgEarthNet.uav[2] utilizationFail 0
scalar OsgEarthNet.uav[2] simulationTime 259200
scalar OsgEarthNet.uav[3] utilizationSecMission 15043.98594614
scalar OsgEarthNet.uav[3] utilizationSecMaintenance 4894.6395473429
scalar OsgEarthNet.uav[3] utilizationSecCharge 72690
scalar OsgEarthNet.uav[3] utilizationSecIdle 166571.37350652
scalar OsgEarthNet.uav[3] utilizationEnergyMission 69507.104888916
scalar OsgEarthNet.uav[3] utilizationEnergyMaintenance 23940.528823853
scalar OsgEarthNet.uav[3] utilizationEnergyCharge 93447.625976562
scalar OsgEarthNet.uav[3] utilizationEnergyOverdrawMission 0
scalar OsgEarthNet.uav[3] utilizationEnergyOverdrawMaintenance 0
scalar OsgEarthNet.uav[3] utilizationCountMissions 20
scalar OsgEarthNet.uav[3] utilizationCountManeuversMission 228
scalar OsgEarthNet.uav[3] utilizationCountManeuversMaintenance 39
scalar OsgEarthNet.uav[3] utilizationCountChargeState 20
scalar OsgEarthNet.uav[3] utilizationCountOverdrawnAfterMission 0
scalar OsgEarthNet.uav[3] utilizationCountIdleState 16
scalar OsgEarthNet.uav[3] utilizationFail 0
scalar OsgEarthNet.uav[3] simulationTime 259200
scalar OsgEarthNet.uav[4] utilizationSecMission 36149.647735716
scalar OsgEarthNet.uav[4] utilizationSecMaintenance 16283.408350714
scalar OsgEarthNet.uav[4] utilizationSecCharge 190822.59124201
scalar OsgEarthNet.uav[4] utilizationSecIdle 15944.351671562
scalar OsgEarthNet.uav[4] utilizationEnergyMission 168084.74045563
scalar OsgEarthNet.uav[4] utilizationEnergyMaintenance 77209.56300354
scalar OsgEarthNet.uav[4] utilizationEnergyCharge 242256.81311035
scalar OsgEarthNet.uav[4] utilizationEnergyOverdrawMission 0
scalar OsgEarthNet.uav[4] utilizationEnergyOverdrawMaintenance 0
scalar OsgEarthNet.uav[4] utilizationCountMissions 52
scalar OsgEarthNet.uav[4] utilizationCountManeuversMission 677
scalar OsgEarthNet.uav[4] utilizationCountManeuversMaintenance 104
scalar OsgEarthNet.uav[4] utilizationCountChargeState 52
scalar OsgEarthNet.uav[4] utilizationCountOverdrawnAfterMission 0
scalar OsgEarthNet.uav[4] utilizationCountIdleState 27
scalar OsgEarthNet.uav[4] utilizationFail 0
scalar OsgEarthNet.uav[4] simulationTime 259200
scalar OsgEarthNet.uav[5] utilizationSecMission 28793.192506929
scalar OsgEarthNet.uav[5] utilizationSecMaintenance 12546.317563929
scalar OsgEarthNet.uav[5] utilizationSecCharge 148490.03194125
scalar OsgEarthNet.uav[5] utilizationSecIdle 69370.45698789
scalar OsgEarthNet.uav[5] utilizationEnergyMission 133058.81230927
scalar OsgEarthNet.uav[5] utilizationEnergyMaintenance 59657.648082733
scalar OsgEarthNet.uav[5] utilizationEnergyCharge 188482.03649902
scalar OsgEarthNet.uav[5] utilizationEnergyOverdrawMission 0
scalar OsgEarthNet.uav[5] utilizationEnergyOverdrawMaintenance 0
scalar OsgEarthNet.uav[5] utilizationCountMissions 41
scalar OsgEarthNet.uav[5] utilizationCountManeuversMission 498
scalar OsgEarthNet.uav[5] utilizationCountManeuversMaintenance 82
scalar OsgEarthNet.uav[5] utilizationCountChargeState 41
scalar OsgEarthNet.uav[5] utilizationCountOverdrawnAfterMission 0
scalar OsgEarthNet.uav[5] utilizationCountIdleState 26
scalar OsgEarthNet.uav[5] utilizationFail 0
scalar OsgEarthNet.uav[5] simulationTime 259200
scalar OsgEarthNet.uav[6] utilizationSecMission 24488.441053365
scalar OsgEarthNet.uav[6] utilizationSecMaintenance 9563.8629807409
scalar OsgEarthNet.uav[6] utilizationSecCharge 120960
scalar OsgEarthNet.uav[6] utilizationSecIdle 104187.69496589
scalar OsgEarthNet.uav[6] utilizationEnergyMission 113513.63405991
scalar OsgEarthNet.uav[6] utilizationEnergyMaintenance 46006.860233307
scalar OsgEarthNet.uav[6] utilizationEnergyCharge 159502.3359375
scalar OsgEarthNet.uav[6] utilizationEnergyOverdrawMission 0
scalar OsgEarthNet.uav[6] utilizationEnergyOverdrawMaintenance 0
scalar OsgEarthNet.uav[6] utilizationCountMissions 34
scalar OsgEarthNet.uav[6] utilizationCountManeuversMission 384
scalar OsgEarthNet.uav[6] utilizationCountManeuversMaintenance 68
scalar OsgEarthNet.uav[6] utilizationCountChargeState 34
scalar OsgEarthNet.uav[6] utilizationCountOverdrawnAfterMission 0
scalar OsgEarthNet.uav[6] utilizationCountIdleState 17
scalar OsgEarthNet.uav[6] utilizationFail 0
scalar OsgEarthNet.uav[6] simulationTime 259200
scalar OsgEarthNet.uav[7] utilizationSecMission 42036.260217055
scalar OsgEarthNet.uav[7] utilizationSecMaintenance 13287.733542771
scalar OsgEarthNet.uav[7] utilizationSecCharge 194650
scalar OsgEarthNet.uav[7] utilizationSecIdle 9226.0052401734
scalar OsgEarthNet.uav[7] utilizationEnergyMission 195858.48562938
scalar OsgEarthNet.uav[7] utilizationEnergyMaintenance 62311.27148819
scalar OsgEarthNet.uav[7] utilizationEnergyCharge 256843.42236328
scalar OsgEarthNet.uav[7] utilizationEnergyOverdrawMission 0
scalar OsgEarthNet.uav[7] utilizationEnergyOverdrawMaintenance 0
scalar OsgEarthNet.uav[7] utilizationCountMissions 54
scalar OsgEarthNet.uav[7] utilizationCountManeuversMission 722
scalar OsgEarthNet.uav[7] utilizationCountManeuversMaintenance 109
scalar OsgEarthNet.uav[7] utilizationCountChargeState 54
scalar OsgEarthNet.uav[7] utilizationCountOverdrawnAfterMission 0
scalar OsgEarthNet.uav[7] utilizationCountIdleState 20
scalar OsgEarthNet.uav[7] utilizationFail 0
scalar OsgEarthNet.uav[7] simulationTime 259200
scalar OsgEarthNet.uav[8] utilizationSecMission 21011.449649956
scalar OsgEarthNet.uav[8] utilizationSecMaintenance 5771.134222215
scalar OsgEarthNet.uav[8] utilizationSecCharge 96830
scalar OsgEarthNet.uav[8] utilizationSecIdle 135587.41512783
scalar OsgEarthNet.uav[8] utilizationEnergyMission 96538.71796224
scalar OsgEarthNet.uav[8] utilizationEnergyMaintenance 27140.945091248
scalar OsgEarthNet.uav[8] utilizationEnergyCharge 124431.84423828
scalar OsgEarthNet.uav[8] utilizationEnergyOverdrawMission 0
scalar OsgEarthNet.uav[8] utilizationEnergyOverdrawMaintenance 0
scalar OsgEarthNet.uav[8] utilizationCountMissions 26
scalar OsgEarthNet.uav[8] utilizationCountManeuversMission 331
scalar OsgEarthNet.uav[8] utilizationCountManeuversMaintenance 51
scalar OsgEarthNet.uav[8] utilizationCountChargeState 26
scalar OsgEarthNet.uav[8] utilizationCountOverdrawnAfterMission 0
scalar OsgEarthNet.uav[8] utilizationCountIdleState 20
scalar OsgEarthNet.uav[8] utilizationFail 0
scalar OsgEarthNet.uav[8] simulationTime 259200
scalar OsgEarthNet.uav[9] utilizationSecMission 24796.12165272
scalar OsgEarthNet.uav[9] utilizationSecMaintenance 8018.2914357148
scalar OsgEarthNet.uav[9] utilizationSecCharge 113891.28442004
scalar OsgEarthNet.uav[9] utilizationSecIdle 112494.30149152
scalar OsgEarthNet.uav[9] utilizationEnergyMission 114908.12108612
scalar OsgEarthNet.uav[9] utilizationEnergyMaintenance 37759.467063904
scalar OsgEarthNet.uav[9] utilizationEnergyCharge 152336.31103516
scalar OsgEarthNet.uav[9] utilizationEnergyOverdrawMission 0
scalar OsgEarthNet.uav[9] utilizationEnergyOverdrawMaintenance 0
scalar OsgEarthNet.uav[9] utilizationCountMissions 33
scalar OsgEarthNet.uav[9] utilizationCountManeuversMission 387
scalar OsgEarthNet.uav[9] utilizationCountManeuversMaintenance 66
scalar OsgEarthNet.uav[9] utilizationCountChargeState 33
scalar OsgEarthNet.uav[9] utilizationCountOverdrawnAfterMission 0
scalar OsgEarthNet.uav[9] utilizationCountIdleState 11
scalar OsgEarthNet.uav[9] utilizationFail 0
scalar OsgEarthNet.uav[9] simulationTime 259200
scalar OsgEarthNet.uav[10] utilizationSecMission 21862.626977846
scalar OsgEarthNet.uav[10] utilizationSecMaintenance 7769.3289912672
scalar OsgEarthNet.uav[10] utilizationSecCharge 107270
scalar OsgEarthNet.uav[10] utilizationSecIdle 122298.04303089
scalar OsgEarthNet.uav[10] utilizationEnergyMission 102058.80654907
scalar OsgEarthNet.uav[10] utilizationEnergyMaintenance 37654.675758362
scalar OsgEarthNet.uav[10] utilizationEnergyCharge 139693.95166016
scalar OsgEarthNet.uav[10] utilizationEnergyOverdrawMission 0
scalar OsgEarthNet.uav[10] utilizationEnergyOverdrawMaintenance 0
scalar OsgEarthNet.uav[10] utilizationCountMissions 30
scalar OsgEarthNet.uav[10] utilizationCountManeuversMission 337
scalar OsgEarthNet.uav[10] utilizationCountManeuversMaintenance 60
scalar OsgEarthNet.uav[10] utilizationCountChargeState 30
scalar OsgEarthNet.uav[10] utilizationCountOverdrawnAfterMission 0
scalar OsgEarthNet.uav[10] utilizationCountIdleState 19
scalar OsgEarthNet.uav[10] utilizationFail 0
scalar OsgEarthNet.uav[10] simulationTime 259200
scalar OsgEarthNet.uav[11] utilizationSecMission 38942.588875669
scalar OsgEarthNet.uav[11] utilizationSecMaintenance 12334.158464939
scalar OsgEarthNet.uav[11] utilizationSecCharge 175344.89903734
scalar OsgEarthNet.uav[11] utilizationSecIdle 32578.352622049
scalar OsgEarthNet.uav[11] utilizationEnergyMission 179011.26807785
scalar OsgEarthNet.uav[11] utilizationEnergyMaintenance 59043.276943207
scalar OsgEarthNet.uav[11] utilizationEnergyCharge 234002.64398193
scalar OsgEarthNet.uav[11] utilizationEnergyOverdrawMission 0
scalar OsgEarthNet.uav[11] utilizationEnergyOverdrawMaintenance 0
scalar OsgEarthNet.uav[11] utilizationCountMissions 52
scalar OsgEarthNet.uav[11] utilizationCountManeuversMission 594
scalar OsgEarthNet.uav[11] utilizationCountManeuversMaintenance 104
scalar OsgEarthNet.uav[11] utilizationCountChargeState 52
scalar OsgEarthNet.uav[11] utilizationCountOverdrawnAfterMission 0
scalar OsgEarthNet.uav[11] utilizationCountIdleState 17
scalar OsgEarthNet.uav[11] utilizationFail 0
scalar OsgEarthNet.uav[11] simulationTime 259200
scalar OsgEarthNet.uav[12] utilizationSecMission 45125.982519788
scalar OsgEarthNet.uav[12] utilizationSecMaintenance 9285.4197136079
scalar OsgEarthNet.uav[12] utilizationSecCharge 182077.14380789
scalar OsgEarthNet.uav[12] utilizationSecIdle 22711.452958717
scalar OsgEarthNet.uav[12] utilizationEnergyMission 206131.11953735
scalar OsgEarthNet.uav[12] utilizationEnergyMaintenance 42218.936687469
scalar OsgEarthNet.uav[12] utilizationEnergyCharge 244821.10327148
scalar OsgEarthNet.uav[12] utilizationEnergyOverdrawMission 0
scalar OsgEarthNet.uav[12] utilizationEnergyOverdrawMaintenance 0
scalar OsgEarthNet.uav[12] utilizationCountMissions 52
scalar OsgEarthNet.uav[12] utilizationCountManeuversMission 717
scalar OsgEarthNet.uav[12] utilizationCountManeuversMaintenance 104
scalar OsgEarthNet.uav[12] utilizationCountChargeState 52
scalar OsgEarthNet.uav[12] utilizationCountOverdrawnAfterMission 0
scalar OsgEarthNet.uav[12] utilizationCountIdleState 20
scalar OsgEarthNet.uav[12] utilizationFail 0
scalar OsgEarthNet.uav[12] simulationTime 259200
scalar OsgEarthNet.uav[13] utilizationSecMission 10098.00836211
scalar OsgEarthNet.uav[13] utilizationSecMaintenance 4884.2377990908
scalar OsgEarthNet.uav[13] utilizationSecCharge 55520
scalar OsgEarthNet.uav[13] utilizationSecIdle 188697.7528388
scalar OsgEarthNet.uav[13] utilizationEnergyMission 46968.760467529
scalar OsgEarthNet.uav[13] utilizationEnergyMaintenance 22869.964366913
scalar OsgEarthNet.uav[13] utilizationEnergyCharge 69838.725097656
scalar OsgEarthNet.uav[13] utilizationEnergyOverdrawMission 0
scalar OsgEarthNet.uav[13] utilizationEnergyOverdrawMaintenance 0
scalar OsgEarthNet.uav[13] utilizationCountMissions 15
scalar OsgEarthNet.uav[13] utilizationCountManeuversMission 160
scalar OsgEarthNet.uav[13] utilizationCountManeuversMaintenance 30
scalar OsgEarthNet.uav[13] utilizationCountChargeState 15
scalar OsgEarthNet.uav[13] utilizationCountOverdrawnAfterMission 0
scalar OsgEarthNet.uav[13] utilizationCountIdleState 15
scalar OsgEarthNet.uav[13] utilizationFail 0
scalar OsgEarthNet.uav[13] simulationTime 259200
scalar OsgEarthNet.uav[14] utilizationSecMission 42413.79952468
scalar OsgEarthNet.uav[14] utilizationSecMaintenance 13071.855418493
scalar OsgEarthNet.uav[14] utilizationSecCharge 193341.87193945
scalar OsgEarthNet.uav[14] utilizationSecIdle 10372.472117382
scalar OsgEarthNet.uav[14] utilizationEnergyMission 193739.95741272
scalar OsgEarthNet.uav[14] utilizationEnergyMaintenance 61300.842704773
scalar OsgEarthNet.uav[14] utilizationEnergyCharge 254085.00561523
scalar OsgEarthNet.uav[14] utilizationEnergyOverdrawMission 0
scalar OsgEarthNet.uav[14] utilizationEnergyOverdrawMaintenance 0
scalar OsgEarthNet.uav[14] utilizationCountMissions 54
scalar OsgEarthNet.uav[14] utilizationCountManeuversMission 731
scalar OsgEarthNet.uav[14] utilizationCountManeuversMaintenance 108
scalar OsgEarthNet.uav[14] utilizationCountChargeState 54
scalar OsgEarthNet.uav[14] utilizationCountOverdrawnAfterMission 0
scalar OsgEarthNet.uav[14] utilizationCountIdleState 20
scalar OsgEarthNet.uav[14] utilizationFail 0
scalar OsgEarthNet.uav[14] simulationTime 259200
scalar OsgEarthNet.uav[15] utilizationSecMission 15869.882112729
scalar OsgEarthNet.uav[15] utilizationSecMaintenance 7264.6594297483
scalar OsgEarthNet.uav[15] utilizationSecCharge 85670
scalar OsgEarthNet.uav[15] utilizationSecIdle 150395.45745752
scalar OsgEarthNet.uav[15] utilizationEnergyMission 73330.066688538
scalar OsgEarthNet.uav[15] utilizationEnergyMaintenance 34397.218067169
scalar OsgEarthNet.uav[15] utilizationEnergyCharge 107727.26123047
scalar OsgEarthNet.uav[15] utilizationEnergyOverdrawMission 0
scalar OsgEarthNet.uav[15] utilizationEnergyOverdrawMaintenance 0
scalar OsgEarthNet.uav[15] utilizationCountMissions 23
scalar OsgEarthNet.uav[15] utilizationCountManeuversMission 257
scalar OsgEarthNet.uav[15] utilizationCountManeuversMaintenance 46
scalar OsgEarthNet.uav[15] utilizationCountChargeState 23
scalar OsgEarthNet.uav[15] utilizationCountOverdrawnAfterMission 0
scalar OsgEarthNet.uav[15] utilizationCountIdleState 23
scalar OsgEarthNet.uav[15] utilizationFail 0
scalar OsgEarthNet.uav[15] simulationTime 259200
scalar OsgEarthNet.uav[16] utilizationSecMission 19652.26325026
scalar OsgEarthNet.uav[16] utilizationSecMaintenance 7254.2000074239
scalar OsgEarthNet.uav[16] utilizationSecCharge 96510
scalar OsgEarthNet.uav[16] utilizationSecIdle 135783.53574232
scalar OsgEarthNet.uav[16] utilizationEnergyMission 90945.678260803
scalar OsgEarthNet.uav[16] utilizationEnergyMaintenance 34282.4556427
scalar OsgEarthNet.uav[16] utilizationEnergyCharge 125228.12451172
scalar OsgEarthNet.uav[16] utilizationEnergyOverdrawMission 0
scalar OsgEarthNet.uav[16] utilizationEnergyOverdrawMaintenance 0
scalar OsgEarthNet.uav[16] utilizationCountMissions 27
scalar OsgEarthNet.uav[16] utilizationCountManeuversMission 303
scalar OsgEarthNet.uav[16] utilizationCountManeuversMaintenance 54
scalar OsgEarthNet.uav[16] utilizationCountChargeState 27
scalar OsgEarthNet.uav[16] utilizationCountOverdrawnAfterMission 0
scalar OsgEarthNet.uav[16] utilizationCountIdleState 18
scalar OsgEarthNet.uav[16] utilizationFail 0
scalar OsgEarthNet.uav[16] simulationTime 259200
scalar OsgEarthNet.uav[17] utilizationSecMission 31760.067494428
scalar OsgEarthNet.uav[17] utilizationSecMaintenance 12229.872199122
scalar OsgEarthNet.uav[17] utilizationSecCharge 154248.05930645
scalar OsgEarthNet.uav[17] utilizationSecIdle 60962
scalar OsgEarthNet.uav[17] utilizationEnergyMission 146614.15315247
scalar OsgEarthNet.uav[17] utilizationEnergyMaintenance 58662.89112854
scalar OsgEarthNet.uav[17] utilizationEnergyCharge 204794.79541016
scalar OsgEarthNet.uav[17] utilizationEnergyOverdrawMission 0
scalar OsgEarthNet.uav[17] utilizationEnergyOverdrawMaintenance 0
scalar OsgEarthNet.uav[17] utilizationCountMissions 44
scalar OsgEarthNet.uav[17] utilizationCountManeuversMission 497
scalar OsgEarthNet.uav[17] utilizationCountManeuversMaintenance 87
scalar OsgEarthNet.uav[17] utilizationCountChargeState 44
scalar OsgEarthNet.uav[17] utilizationCountOverdrawnAfterMission 0
scalar OsgEarthNet.uav[17] utilizationCountIdleState 17
scalar OsgEarthNet.uav[17] utilizationFail 0
scalar OsgEarthNet.uav[17] simulationTime 259200
scalar OsgEarthNet.uav[18] utilizationSecMission 19141.67554064
scalar OsgEarthNet.uav[18] utilizationSecMaintenance 7751.0949530225
scalar OsgEarthNet.uav[18] utilizationSecCharge 92881.192407569
scalar OsgEarthNet.uav[18] utilizationSecIdle 139426.03609877
scalar OsgEarthNet.uav[18] utilizationEnergyMission 87362.166282654
scalar OsgEarthNet.uav[18] utilizationEnergyMaintenance 37080.089206696
scalar OsgEarthNet.uav[18] utilizationEnergyCharge 120946.9354248
scalar OsgEarthNet.uav[18] utilizationEnergyOverdrawMission 0
scalar OsgEarthNet.uav[18] utilizationEnergyOverdrawMaintenance 0
scalar OsgEarthNet.uav[18] utilizationCountMissions 27
scalar OsgEarthNet.uav[18] utilizationCountManeuversMission 305
scalar OsgEarthNet.uav[18] utilizationCountManeuversMaintenance 54
scalar OsgEarthNet.uav[18] utilizationCountChargeState 27
scalar OsgEarthNet.uav[18] utilizationCountOverdrawnAfterMission 0
scalar OsgEarthNet.uav[18] utilizationCountIdleState 16
scalar OsgEarthNet.uav[18] utilizationFail 0
scalar OsgEarthNet.uav[18] simulationTime 259200
scalar OsgEarthNet.uav[19] utilizationSecMission 25777.073078309
scalar OsgEarthNet.uav[19] utilizationSecMaintenance 9949.9395314086
scalar OsgEarthNet.uav[19] utilizationSecCharge 124719.59427534
scalar OsgEarthNet.uav[19] utilizationSecIdle 98753.392114941
scalar OsgEarthNet.uav[19] utilizationEnergyMission 119364.06672668
scalar OsgEarthNet.uav[19] utilizationEnergyMaintenance 47441.147823334
scalar OsgEarthNet.uav[19] utilizationEnergyCharge 166527.25292969
scalar OsgEarthNet.uav[19] utilizationEnergyOverdrawMission 0
scalar OsgEarthNet.uav[19] utilizationEnergyOverdrawMaintenance 0
scalar OsgEarthNet.uav[19] utilizationCountMissions 36
scalar OsgEarthNet.uav[19] utilizationCountManeuversMission 412
scalar OsgEarthNet.uav[19] utilizationCountManeuversMaintenance 72
scalar OsgEarthNet.uav[19] utilizationCountChargeState 36
scalar OsgEarthNet.uav[19] utilizationCountOverdrawnAfterMission 0
scalar OsgEarthNet.uav[19] utilizationCountIdleState 15
scalar OsgEarthNet.uav[19] utilizationFail 0
scalar OsgEarthNet.uav[19] simulationTime 259200
scalar OsgEarthNet.uav[20] utilizationSecMission 18089.337469867
scalar OsgEarthNet.uav[20] utilizationSecMaintenance 8897.9817705488
scalar OsgEarthNet.uav[20] utilizationSecCharge 99270
scalar OsgEarthNet.uav[20] utilizationSecIdle 132942.67975958
scalar OsgEarthNet.uav[20] utilizationEnergyMission 85032.754112244
scalar OsgEarthNet.uav[20] utilizationEnergyMaintenance 42099.261051178
scalar OsgEarthNet.uav[20] utilizationEnergyCharge 127079.54541016
scalar OsgEarthNet.uav[20] utilizationEnergyOverdrawMission 0
scalar OsgEarthNet.uav[20] utilizationEnergyOverdrawMaintenance 0
scalar OsgEarthNet.uav[20] utilizationCountMissions 27
scalar OsgEarthNet.uav[20] utilizationCountManeuversMission 284
scalar OsgEarthNet.uav[20] utilizationCountManeuversMaintenance 54
scalar OsgEarthNet.uav[20] utilizationCountChargeState 27
scalar OsgEarthNet.uav[20] utilizationCountOverdrawnAfterMission 0
scalar OsgEarthNet.uav[20] utilizationCountIdleState 19
scalar OsgEarthNet.uav[20] utilizationFail 0
scalar OsgEarthNet.uav[20] simulationTime 259200
scalar OsgEarthNet.uav[21] utilizationSecMission 13080.510054811
scalar OsgEarthNet.uav[21] utilizationSecMaintenance 6841.690114758
scalar OsgEarthNet.uav[21] utilizationSecCharge 73860
scalar OsgEarthNet.uav[21] utilizationSecIdle 165417.79883043
scalar OsgEarthNet.uav[21] utilizationEnergyMission 59501.109092712
scalar OsgEarthNet.uav[21] utilizationEnergyMaintenance 34135.386764526
scalar OsgEarthNet.uav[21] utilizationEnergyCharge 93636.4609375
scalar OsgEarthNet.uav[21] utilizationEnergyOverdrawMission 0
scalar OsgEarthNet.uav[21] utilizationEnergyOverdrawMaintenance 0
scalar OsgEarthNet.uav[21] utilizationCountMissions 20
scalar OsgEarthNet.uav[21] utilizationCountManeuversMission 212
scalar OsgEarthNet.uav[21] utilizationCountManeuversMaintenance 40
scalar OsgEarthNet.uav[21] utilizationCountChargeState 20
scalar OsgEarthNet.uav[21] utilizationCountOverdrawnAfterMission 0
scalar OsgEarthNet.uav[21] utilizationCountIdleState 17
scalar OsgEarthNet.uav[21] utilizationFail 0
scalar OsgEarthNet.uav[21] simulationTime 259200
scalar OsgEarthNet.uav[22] utilizationSecMission 13719.172987451
scalar OsgEarthNet.uav[22] utilizationSecMaintenance 6201.5985978045
scalar OsgEarthNet.uav[22] utilizationSecCharge 73670
scalar OsgEarthNet.uav[22] utilizationSecIdle 165609.22741474
scalar OsgEarthNet.uav[22] utilizationEnergyMission 63121.0313797
scalar OsgEarthNet.uav[22] utilizationEnergyMaintenance 29590.103317261
scalar OsgEarthNet.uav[22] utilizationEnergyCharge 92645.342773438
scalar OsgEarthNet.uav[22] utilizationEnergyOverdrawMission 0
scalar OsgEarthNet.uav[22] utilizationEnergyOverdrawMaintenance 0
scalar OsgEarthNet.uav[22] utilizationCountMissions 20
scalar OsgEarthNet.uav[22] utilizationCountManeuversMission 223
scalar OsgEarthNet.uav[22] utilizationCountManeuversMaintenance 40
scalar OsgEarthNet.uav[22] utilizationCountChargeState 20
scalar OsgEarthNet.uav[22] utilizationCountOverdrawnAfterMission 0
scalar OsgEarthNet.uav[22] utilizationCountIdleState 18
scalar OsgEarthNet.uav[22] utilizationFail 0
scalar OsgEarthNet.uav[22] simulationTime 259200
scalar OsgEarthNet.uav[23] utilizationSecMission 27467.833702813
scalar OsgEarthNet.uav[23] utilizationSecMaintenance 10347.40076465
scalar OsgEarthNet.uav[23] utilizationSecCharge 136357.33228951
scalar OsgEarthNet.uav[23] utilizationSecIdle 85027.432243029
scalar OsgEarthNet.uav[23] utilizationEnergyMission 126681.46153259
scalar OsgEarthNet.uav[23] utilizationEnergyMaintenance 50471.666492462
scalar OsgEarthNet.uav[23] utilizationEnergyCharge 176635.09082031
scalar OsgEarthNet.uav[23] utilizationEnergyOverdrawMission 0
scalar OsgEarthNet.uav[23] utilizationEnergyOverdrawMaintenance 0
scalar OsgEarthNet.uav[23] utilizationCountMissions 38
scalar OsgEarthNet.uav[23] utilizationCountManeuversMission 429
scalar OsgEarthNet.uav[23] utilizationCountManeuversMaintenance 76
scalar OsgEarthNet.uav[23] utilizationCountChargeState 38
scalar OsgEarthNet.uav[23] utilizationCountOverdrawnAfterMission 0
scalar OsgEarthNet.uav[23] utilizationCountIdleState 25
scalar OsgEarthNet.uav[23] utilizationFail 0
scalar OsgEarthNet.uav[23] simulationTime 259200
scalar OsgEarthNet.uav[24] utilizationSecMission 35841.849679078
scalar OsgEarthNet.uav[24] utilizationSecMaintenance 15709.449130483
scalar OsgEarthNet.uav[24] utilizationSecCharge 190272.3539223
scalar OsgEarthNet.uav[24] utilizationSecIdle 17376.346268142
scalar OsgEarthNet.uav[24] utilizationEnergyMission 167385.19366455
scalar OsgEarthNet.uav[24] utilizationEnergyMaintenance 73963.905410767
scalar OsgEarthNet.uav[24] utilizationEnergyCharge 240575.23095703
scalar OsgEarthNet.uav[24] utilizationEnergyOverdrawMission 0
scalar OsgEarthNet.uav[24] utilizationEnergyOverdrawMaintenance 0
scalar OsgEarthNet.uav[24] utilizationCountMissions 52
scalar OsgEarthNet.uav[24] utilizationCountManeuversMission 672
scalar OsgEarthNet.uav[24] utilizationCountManeuversMaintenance 104
scalar OsgEarthNet.uav[24] utilizationCountChargeState 52
scalar OsgEarthNet.uav[24] utilizationCountOverdrawnAfterMission 0
scalar OsgEarthNet.uav[24] utilizationCountIdleState 35
scalar OsgEarthNet.uav[24] utilizationFail 0
scalar OsgEarthNet.uav[24] simulationTime 259200
scalar OsgEarthNet.uav[25] utilizationSecMission 22238.972905846
scalar OsgEarthNet.uav[25] utilizationSecMaintenance 6509.0111088339
scalar OsgEarthNet.uav[25] utilizationSecCharge 105910
scalar OsgEarthNet.uav[25] utilizationSecIdle 124542.01498532
scalar OsgEarthNet.uav[25] utilizationEnergyMission 102599.30304718
scalar OsgEarthNet.uav[25] utilizationEnergyMaintenance 30048.28918457
scalar OsgEarthNet.uav[25] utilizationEnergyCharge 133919.0625
scalar OsgEarthNet.uav[25] utilizationEnergyOverdrawMission 0
scalar OsgEarthNet.uav[25] utilizationEnergyOverdrawMaintenance 0
scalar OsgEarthNet.uav[25] utilizationCountMissions 28
scalar OsgEarthNet.uav[25] utilizationCountManeuversMission 359
scalar OsgEarthNet.uav[25] utilizationCountManeuversMaintenance 56
scalar OsgEarthNet.uav[25] utilizationCountChargeState 28
scalar OsgEarthNet.uav[25] utilizationCountOverdrawnAfterMission 0
scalar OsgEarthNet.uav[25] utilizationCountIdleState 28
scalar OsgEarthNet.uav[25] utilizationFail 0
scalar OsgEarthNet.uav[25] simulationTime 259200
scalar OsgEarthNet.uav[26] utilizationSecMission 15388.220416341
scalar OsgEarthNet.uav[26] utilizationSecMaintenance 7054.3215070297
scalar OsgEarthNet.uav[26] utilizationSecCharge 80250
scalar OsgEarthNet.uav[26] utilizationSecIdle 156507.45707663
scalar OsgEarthNet.uav[26] utilizationEnergyMission 71892.97273146
scalar OsgEarthNet.uav[26] utilizationEnergyMaintenance 33664.073829651
scalar OsgEarthNet.uav[26] utilizationEnergyCharge 102009.38671875
scalar OsgEarthNet.uav[26] utilizationEnergyOverdrawMission 0
scalar OsgEarthNet.uav[26] utilizationEnergyOverdrawMaintenance 0
scalar OsgEarthNet.uav[26] utilizationCountMissions 22
scalar OsgEarthNet.uav[26] utilizationCountManeuversMission 259
scalar OsgEarthNet.uav[26] utilizationCountManeuversMaintenance 45
scalar OsgEarthNet.uav[26] utilizationCountChargeState 22
scalar OsgEarthNet.uav[26] utilizationCountOverdrawnAfterMission 0
scalar OsgEarthNet.uav[26] utilizationCountIdleState 14
scalar OsgEarthNet.uav[26] utilizationFail 0
scalar OsgEarthNet.uav[26] simulationTime 259200
scalar OsgEarthNet.uav[27] utilizationSecMission 14512.328189254
scalar OsgEarthNet.uav[27] utilizationSecMaintenance 8489.4406517415
scalar OsgEarthNet.uav[27] utilizationSecCharge 86100
scalar OsgEarthNet.uav[27] utilizationSecIdle 150098.230159
scalar OsgEarthNet.uav[27] utilizationEnergyMission 67753.44682312
scalar OsgEarthNet.uav[27] utilizationEnergyMaintenance 40686.487365723
scalar OsgEarthNet.uav[27] utilizationEnergyCharge 108423.72998047
scalar OsgEarthNet.uav[27] utilizationEnergyOverdrawMission 0
scalar OsgEarthNet.uav[27] utilizationEnergyOverdrawMaintenance 16.217065811157
scalar OsgEarthNet.uav[27] utilizationCountMissions 23
scalar OsgEarthNet.uav[27] utilizationCountManeuversMission 242
scalar OsgEarthNet.uav[27] utilizationCountManeuversMaintenance 46
scalar OsgEarthNet.uav[27] utilizationCountChargeState 23
scalar OsgEarthNet.uav[27] utilizationCountOverdrawnAfterMission 1
scalar OsgEarthNet.uav[27] utilizationCountIdleState 22
scalar OsgEarthNet.uav[27] utilizationFail 0
scalar OsgEarthNet.uav[27] simulationTime 259200
scalar OsgEarthNet.uav[28] utilizationSecMission 22584.461459626
scalar OsgEarthNet.uav[28] utilizationSecMaintenance 8307.3683192188
scalar OsgEarthNet.uav[28] utilizationSecCharge 111881.72164868
scalar OsgEarthNet.uav[28] utilizationSecIdle 116426.44757247
scalar OsgEarthNet.uav[28] utilizationEnergyMission 104722.58750916
scalar OsgEarthNet.uav[28] utilizationEnergyMaintenance 39854.739765167
scalar OsgEarthNet.uav[28] utilizationEnergyCharge 143107.40576172
scalar OsgEarthNet.uav[28] utilizationEnergyOverdrawMission 0
scalar OsgEarthNet.uav[28] utilizationEnergyOverdrawMaintenance 0
scalar OsgEarthNet.uav[28] utilizationCountMissions 31
scalar OsgEarthNet.uav[28] utilizationCountManeuversMission 359
scalar OsgEarthNet.uav[28] utilizationCountManeuversMaintenance 62
scalar OsgEarthNet.uav[28] utilizationCountChargeState 31
scalar OsgEarthNet.uav[28] utilizationCountOverdrawnAfterMission 0
scalar OsgEarthNet.uav[28] utilizationCountIdleState 24
scalar OsgEarthNet.uav[28] utilizationFail 0
scalar OsgEarthNet.uav[28] simulationTime 259200
scalar OsgEarthNet.uav[29] utilizationSecMission 8454.4229575305
scalar OsgEarthNet.uav[29] utilizationSecMaintenance 4614.2774056981
scalar OsgEarthNet.uav[29] utilizationSecCharge 49050
scalar OsgEarthNet.uav[29] utilizationSecIdle 197081.29863677
scalar OsgEarthNet.uav[29] utilizationEnergyMission 38913.469703674
scalar OsgEarthNet.uav[29] utilizationEnergyMaintenance 22578.323677063
scalar OsgEarthNet.uav[29] utilizationEnergyCharge 61491.792480469
scalar OsgEarthNet.uav[29] utilizationEnergyOverdrawMission 0
scalar OsgEarthNet.uav[29] utilizationEnergyOverdrawMaintenance 0
scalar OsgEarthNet.uav[29] utilizationCountMissions 13
scalar OsgEarthNet.uav[29] utilizationCountManeuversMission 133
scalar OsgEarthNet.uav[29] utilizationCountManeuversMaintenance 26
scalar OsgEarthNet.uav[29] utilizationCountChargeState 13
scalar OsgEarthNet.uav[29] utilizationCountOverdrawnAfterMission 0
scalar OsgEarthNet.uav[29] utilizationCountIdleState 14
scalar OsgEarthNet.uav[29] utilizationFail 0
scalar OsgEarthNet.uav[29] simulationTime 259200
scalar OsgEarthNet.uav[30] utilizationSecMission 23435.366267087
scalar OsgEarthNet.uav[30] utilizationSecMaintenance 8402.6327329127
scalar OsgEarthNet.uav[30] utilizationSecCharge 108670
scalar OsgEarthNet.uav[30] utilizationSecIdle 118692
scalar OsgEarthNet.uav[30] utilizationEnergyMission 107794.70938118
scalar OsgEarthNet.uav[30] utilizationEnergyMaintenance 40186.087482452
scalar OsgEarthNet.uav[30] utilizationEnergyCharge 144342.99511719
scalar OsgEarthNet.uav[30] utilizationEnergyOverdrawMission 0
scalar OsgEarthNet.uav[30] utilizationEnergyOverdrawMaintenance 0
scalar OsgEarthNet.uav[30] utilizationCountMissions 31
scalar OsgEarthNet.uav[30] utilizationCountManeuversMission 362
scalar OsgEarthNet.uav[30] utilizationCountManeuversMaintenance 62
scalar OsgEarthNet.uav[30] utilizationCountChargeState 31
scalar OsgEarthNet.uav[30] utilizationCountOverdrawnAfterMission 0
scalar OsgEarthNet.uav[30] utilizationCountIdleState 13
scalar OsgEarthNet.uav[30] utilizationFail 0
scalar OsgEarthNet.uav[30] simulationTime 259200
scalar OsgEarthNet.uav[31] utilizationSecMission 35503.630456907
scalar OsgEarthNet.uav[31] utilizationSecMaintenance 16389.89371924
scalar OsgEarthNet.uav[31] utilizationSecCharge 192820
scalar OsgEarthNet.uav[31] utilizationSecIdle 14486.474823853
scalar OsgEarthNet.uav[31] utilizationEnergyMission 167537.34256744
scalar OsgEarthNet.uav[31] utilizationEnergyMaintenance 76828.412006744
scalar OsgEarthNet.uav[31] utilizationEnergyCharge 243726.34716797
scalar OsgEarthNet.uav[31] utilizationEnergyOverdrawMission 0
scalar OsgEarthNet.uav[31] utilizationEnergyOverdrawMaintenance 0
scalar OsgEarthNet.uav[31] utilizationCountMissions 52
scalar OsgEarthNet.uav[31] utilizationCountManeuversMission 666
scalar OsgEarthNet.uav[31] utilizationCountManeuversMaintenance 105
scalar OsgEarthNet.uav[31] utilizationCountChargeState 52
scalar OsgEarthNet.uav[31] utilizationCountOverdrawnAfterMission 0
scalar OsgEarthNet.uav[31] utilizationCountIdleState 30
scalar OsgEarthNet.uav[31] utilizationFail 0
scalar OsgEarthNet.uav[31] simulationTime 259200
scalar OsgEarthNet.uav[32] utilizationSecMission 25138.515526706
scalar OsgEarthNet.uav[32] utilizationSecMaintenance 8889.7514333675
scalar OsgEarthNet.uav[32] utilizationSecCharge 119172.55692952
scalar OsgEarthNet.uav[32] utilizationSecIdle 105999.17511041
scalar OsgEarthNet.uav[32] utilizationEnergyMission 114441.20463943
scalar OsgEarthNet.uav[32] utilizationEnergyMaintenance 43267.338371277
scalar OsgEarthNet.uav[32] utilizationEnergyCharge 155505.05371094
scalar OsgEarthNet.uav[32] utilizationEnergyOverdrawMission 0
scalar OsgEarthNet.uav[32] utilizationEnergyOverdrawMaintenance 0
scalar OsgEarthNet.uav[32] utilizationCountMissions 34
scalar OsgEarthNet.uav[32] utilizationCountManeuversMission 391
scalar OsgEarthNet.uav[32] utilizationCountManeuversMaintenance 68
scalar OsgEarthNet.uav[32] utilizationCountChargeState 34
scalar OsgEarthNet.uav[32] utilizationCountOverdrawnAfterMission 0
scalar OsgEarthNet.uav[32] utilizationCountIdleState 20
scalar OsgEarthNet.uav[32] utilizationFail 0
scalar OsgEarthNet.uav[32] simulationTime 259200
scalar OsgEarthNet.uav[33] utilizationSecMission 35416.127839572
scalar OsgEarthNet.uav[33] utilizationSecMaintenance 13781.105197682
scalar OsgEarthNet.uav[33] utilizationSecCharge 173420
scalar OsgEarthNet.uav[33] utilizationSecIdle 36582.765962746
scalar OsgEarthNet.uav[33] utilizationEnergyMission 162278.6599081
scalar OsgEarthNet.uav[33] utilizationEnergyMaintenance 65316.850414276
scalar OsgEarthNet.uav[33] utilizationEnergyCharge 224121.86035156
scalar OsgEarthNet.uav[33] utilizationEnergyOverdrawMission 0
scalar OsgEarthNet.uav[33] utilizationEnergyOverdrawMaintenance 0
scalar OsgEarthNet.uav[33] utilizationCountMissions 48
scalar OsgEarthNet.uav[33] utilizationCountManeuversMission 594
scalar OsgEarthNet.uav[33] utilizationCountManeuversMaintenance 97
scalar OsgEarthNet.uav[33] utilizationCountChargeState 48
scalar OsgEarthNet.uav[33] utilizationCountOverdrawnAfterMission 0
scalar OsgEarthNet.uav[33] utilizationCountIdleState 25
scalar OsgEarthNet.uav[33] utilizationFail 0
scalar OsgEarthNet.uav[33] simulationTime 259200
scalar OsgEarthNet.uav[34] utilizationSecMission 36149.647735716
scalar OsgEarthNet.uav[34] utilizationSecMaintenance 16002.180507654
scalar OsgEarthNet.uav[34] utilizationSecCharge 192075.8271902
scalar OsgEarthNet.uav[34] utilizationSecIdle 14972.343566431
scalar OsgEarthNet.uav[34] utilizationEnergyMission 168041.85427094
scalar OsgEarthNet.uav[34] utilizationEnergyMaintenance 75516.444351196
scalar OsgEarthNet.uav[34] utilizationEnergyCharge 243218.17089844
scalar OsgEarthNet.uav[34] utilizationEnergyOverdrawMission 0
scalar OsgEarthNet.uav[34] utilizationEnergyOverdrawMaintenance 0
scalar OsgEarthNet.uav[34] utilizationCountMissions 52
scalar OsgEarthNet.uav[34] utilizationCountManeuversMission 677
scalar OsgEarthNet.uav[34] utilizationCountManeuversMaintenance 104
scalar OsgEarthNet.uav[34] utilizationCountChargeState 52
scalar OsgEarthNet.uav[34] utilizationCountOverdrawnAfterMission 0
scalar OsgEarthNet.uav[34] utilizationCountIdleState 31
scalar OsgEarthNet.uav[34] utilizationFail 0
scalar OsgEarthNet.uav[34] simulationTime 259200
scalar OsgEarthNet.uav[35] utilizationSecMission 43691.618034581
scalar OsgEarthNet.uav[35] utilizationSecMaintenance 10329.539951033
scalar OsgEarthNet.uav[35] utilizationSecCharge 183621.39075036
scalar OsgEarthNet.uav[35] utilizationSecIdle 21557.450264031
scalar OsgEarthNet.uav[35] utilizationEnergyMission 201558.55167389
scalar OsgEarthNet.uav[35] utilizationEnergyMaintenance 48428.020851135
scalar OsgEarthNet.uav[35] utilizationEnergyCharge 245384.41015625
scalar OsgEarthNet.uav[35] utilizationEnergyOverdrawMission 0
scalar OsgEarthNet.uav[35] utilizationEnergyOverdrawMaintenance 0
scalar OsgEarthNet.uav[35] utilizationCountMissions 53
scalar OsgEarthNet.uav[35] utilizationCountManeuversMission 681
scalar OsgEarthNet.uav[35] utilizationCountManeuversMaintenance 106
scalar OsgEarthNet.uav[35] utilizationCountChargeState 53
scalar OsgEarthNet.uav[35] utilizationCountOverdrawnAfterMission 0
scalar OsgEarthNet.uav[35] utilizationCountIdleState 19
scalar OsgEarthNet.uav[35] utilizationFail 0
scalar OsgEarthNet.uav[35] simulationTime 259200
scalar OsgEarthNet.uav[36] utilizationSecMission 31867.704106209
scalar OsgEarthNet.uav[36] utilizationSecMaintenance 10155.964932512
scalar OsgEarthNet.uav[36] utilizationSecCharge 148850
scalar OsgEarthNet.uav[36] utilizationSecIdle 68326.329961279
scalar OsgEarthNet.uav[36] utilizationEnergyMission 147350.44963074
scalar OsgEarthNet.uav[36] utilizationEnergyMaintenance 49526.042881012
scalar OsgEarthNet.uav[36] utilizationEnergyCharge 196900.65966797
scalar OsgEarthNet.uav[36] utilizationEnergyOverdrawMission 0
scalar OsgEarthNet.uav[36] utilizationEnergyOverdrawMaintenance 0
scalar OsgEarthNet.uav[36] utilizationCountMissions 43
scalar OsgEarthNet.uav[36] utilizationCountManeuversMission 484
scalar OsgEarthNet.uav[36] utilizationCountManeuversMaintenance 86
scalar OsgEarthNet.uav[36] utilizationCountChargeState 43
scalar OsgEarthNet.uav[36] utilizationCountOverdrawnAfterMission 0
scalar OsgEarthNet.uav[36] utilizationCountIdleState 19
scalar OsgEarthNet.uav[36] utilizationFail 0
scalar OsgEarthNet.uav[36] simulationTime 259200
scalar OsgEarthNet.uav[37] utilizationSecMission 15258.54808305
scalar OsgEarthNet.uav[37] utilizationSecMaintenance 6950.5489270512
scalar OsgEarthNet.uav[37] utilizationSecCharge 82420
scalar OsgEarthNet.uav[37] utilizationSecIdle 154570.9019899
scalar OsgEarthNet.uav[37] utilizationEnergyMission 69682.014411926
scalar OsgEarthNet.uav[37] utilizationEnergyMaintenance 34034.436115265
scalar OsgEarthNet.uav[37] utilizationEnergyCharge 103716.44677734
scalar OsgEarthNet.uav[37] utilizationEnergyOverdrawMission 0
scalar OsgEarthNet.uav[37] utilizationEnergyOverdrawMaintenance 0
scalar OsgEarthNet.uav[37] utilizationCountMissions 22
scalar OsgEarthNet.uav[37] utilizationCountManeuversMission 254
scalar OsgEarthNet.uav[37] utilizationCountManeuversMaintenance 44
scalar OsgEarthNet.uav[37] utilizationCountChargeState 22
scalar OsgEarthNet.uav[37] utilizationCountOverdrawnAfterMission 0
scalar OsgEarthNet.uav[37] utilizationCountIdleState 20
scalar OsgEarthNet.uav[37] utilizationFail 0
scalar OsgEarthNet.uav[37] simulationTime 259200
scalar OsgEarthNet.uav[38] utilizationSecMission 14343.850394519
scalar OsgEarthNet.uav[38] utilizationSecMaintenance 5762.758309064
scalar OsgEarthNet.uav[38] utilizationSecCharge 74750
scalar OsgEarthNet.uav[38] utilizationSecIdle 164343.39029642
scalar OsgEarthNet.uav[38] utilizationEnergyMission 66444.98184967
scalar OsgEarthNet.uav[38] utilizationEnergyMaintenance 27752.501480103
scalar OsgEarthNet.uav[38] utilizationEnergyCharge 94059.856445312
scalar OsgEarthNet.uav[38] utilizationEnergyOverdrawMission 0
scalar OsgEarthNet.uav[38] utilizationEnergyOverdrawMaintenance 0
scalar OsgEarthNet.uav[38] utilizationCountMissions 20
scalar OsgEarthNet.uav[38] utilizationCountManeuversMission 231
scalar OsgEarthNet.uav[38] utilizationCountManeuversMaintenance 40
scalar OsgEarthNet.uav[38] utilizationCountChargeState 20
scalar OsgEarthNet.uav[38] utilizationCountOverdrawnAfterMission 0
scalar OsgEarthNet.uav[38] utilizationCountIdleState 20
scalar OsgEarthNet.uav[38] utilizationFail 0
scalar OsgEarthNet.uav[38] simulationTime 259200
scalar OsgEarthNet.uav[39] utilizationSecMission 45190.583407267
scalar OsgEarthNet.uav[39] utilizationSecMaintenance 8157.1970664345
scalar OsgEarthNet.uav[39] utilizationSecCharge 181070.7452084
scalar OsgEarthNet.uav[39] utilizationSecIdle 24781.473317897
scalar OsgEarthNet.uav[39] utilizationEnergyMission 206567.16794586
scalar OsgEarthNet.uav[39] utilizationEnergyMaintenance 37557.853271484
scalar OsgEarthNet.uav[39] utilizationEnergyCharge 243792.09619141
scalar OsgEarthNet.uav[39] utilizationEnergyOverdrawMission 0
scalar OsgEarthNet.uav[39] utilizationEnergyOverdrawMaintenance 0
scalar OsgEarthNet.uav[39] utilizationCountMissions 51
scalar OsgEarthNet.uav[39] utilizationCountManeuversMission 714
scalar OsgEarthNet.uav[39] utilizationCountManeuversMaintenance 102
scalar OsgEarthNet.uav[39] utilizationCountChargeState 51
scalar OsgEarthNet.uav[39] utilizationCountOverdrawnAfterMission 0
scalar OsgEarthNet.uav[39] utilizationCountIdleState 21
scalar OsgEarthNet.uav[39] utilizationFail 0
scalar OsgEarthNet.uav[39] simulationTime 259200
scalar OsgEarthNet.uav[40] utilizationSecMission 30811.305842578
scalar OsgEarthNet.uav[40] utilizationSecMaintenance 10927.486587176
scalar OsgEarthNet.uav[40] utilizationSecCharge 149166.27892965
scalar OsgEarthNet.uav[40] utilizationSecIdle 68294.927640597
scalar OsgEarthNet.uav[40] utilizationEnergyMission 141636.69741821
scalar OsgEarthNet.uav[40] utilizationEnergyMaintenance 52769.904117584
scalar OsgEarthNet.uav[40] utilizationEnergyCharge 194386.47949219
scalar OsgEarthNet.uav[40] utilizationEnergyOverdrawMission 0
scalar OsgEarthNet.uav[40] utilizationEnergyOverdrawMaintenance 0
scalar OsgEarthNet.uav[40] utilizationCountMissions 42
scalar OsgEarthNet.uav[40] utilizationCountManeuversMission 480
scalar OsgEarthNet.uav[40] utilizationCountManeuversMaintenance 84
scalar OsgEarthNet.uav[40] utilizationCountChargeState 42
scalar OsgEarthNet.uav[40] utilizationCountOverdrawnAfterMission 0
scalar OsgEarthNet.uav[40] utilizationCountIdleState 27
scalar OsgEarthNet.uav[40] utilizationFail 0
scalar OsgEarthNet.uav[40] simulationTime 259200
scalar OsgEarthNet.uav[41] utilizationSecMission 13457.906166643
scalar OsgEarthNet.uav[41] utilizationSecMaintenance 6946.3604644071
scalar OsgEarthNet.uav[41] utilizationSecCharge 76070
scalar OsgEarthNet.uav[41] utilizationSecIdle 162725.73236895
scalar OsgEarthNet.uav[41] utilizationEnergyMission 62744.859336853
scalar OsgEarthNet.uav[41] utilizationEnergyMaintenance 33157.060466923
scalar OsgEarthNet.uav[41] utilizationEnergyCharge 95882.279785156
scalar OsgEarthNet.uav[41] utilizationEnergyOverdrawMission 0
scalar OsgEarthNet.uav[41] utilizationEnergyOverdrawMaintenance 0
scalar OsgEarthNet.uav[41] utilizationCountMissions 20
scalar OsgEarthNet.uav[41] utilizationCountManeuversMission 224
scalar OsgEarthNet.uav[41] utilizationCountManeuversMaintenance 41
scalar OsgEarthNet.uav[41] utilizationCountChargeState 20
scalar OsgEarthNet.uav[41] utilizationCountOverdrawnAfterMission 0
scalar OsgEarthNet.uav[41] utilizationCountIdleState 21
scalar OsgEarthNet.uav[41] utilizationFail 0
scalar OsgEarthNet.uav[41] simulationTime 259200
scalar OsgEarthNet.uav[42] utilizationSecMission 12565.565487497
scalar OsgEarthNet.uav[42] utilizationSecMaintenance 6579.5858634592
scalar OsgEarthNet.uav[42] utilizationSecCharge 67312.847649044
scalar OsgEarthNet.uav[42] utilizationSecIdle 172742
scalar OsgEarthNet.uav[42] utilizationEnergyMission 59212.521887403
scalar OsgEarthNet.uav[42] utilizationEnergyMaintenance 31081.851230621
scalar OsgEarthNet.uav[42] utilizationEnergyCharge 85683.934295654
scalar OsgEarthNet.uav[42] utilizationEnergyOverdrawMission 0
scalar OsgEarthNet.uav[42] utilizationEnergyOverdrawMaintenance 0
scalar OsgEarthNet.uav[42] utilizationCountMissions 19
scalar OsgEarthNet.uav[42] utilizationCountManeuversMission 208
scalar OsgEarthNet.uav[42] utilizationCountManeuversMaintenance 37
scalar OsgEarthNet.uav[42] utilizationCountChargeState 19
scalar OsgEarthNet.uav[42] utilizationCountOverdrawnAfterMission 0
scalar OsgEarthNet.uav[42] utilizationCountIdleState 17
scalar OsgEarthNet.uav[42] utilizationFail 0
scalar OsgEarthNet.uav[42] simulationTime 259200
scalar OsgEarthNet.uav[43] utilizationSecMission 16300.008268026
scalar OsgEarthNet.uav[43] utilizationSecMaintenance 7411.3990288453
scalar OsgEarthNet.uav[43] utilizationSecCharge 85331.785609174
scalar OsgEarthNet.uav[43] utilizationSecIdle 150156.80609396
scalar OsgEarthNet.uav[43] utilizationEnergyMission 75957.239837646
scalar OsgEarthNet.uav[43] utilizationEnergyMaintenance 36176.67130661
scalar OsgEarthNet.uav[43] utilizationEnergyCharge 109581.22143555
scalar OsgEarthNet.uav[43] utilizationEnergyOverdrawMission 0
scalar OsgEarthNet.uav[43] utilizationEnergyOverdrawMaintenance 0
scalar OsgEarthNet.uav[43] utilizationCountMissions 24
scalar OsgEarthNet.uav[43] utilizationCountManeuversMission 258
scalar OsgEarthNet.uav[43] utilizationCountManeuversMaintenance 48
scalar OsgEarthNet.uav[43] utilizationCountChargeState 24
scalar OsgEarthNet.uav[43] utilizationCountOverdrawnAfterMission 0
scalar OsgEarthNet.uav[43] utilizationCountIdleState 16
scalar OsgEarthNet.uav[43] utilizationFail 0
scalar OsgEarthNet.uav[43] simulationTime 259200
scalar OsgEarthNet.uav[44] utilizationSecMission 32113.902543018
scalar OsgEarthNet.uav[44] utilizationSecMaintenance 11745.150935507
scalar OsgEarthNet.uav[44] utilizationSecCharge 158750
scalar OsgEarthNet.uav[44] utilizationSecIdle 56590.945521474
scalar OsgEarthNet.uav[44] utilizationEnergyMission 149343.59860992
scalar OsgEarthNet.uav[44] utilizationEnergyMaintenance 56192.999477386
scalar OsgEarthNet.uav[44] utilizationEnergyCharge 205478.72558594
scalar OsgEarthNet.uav[44] utilizationEnergyOverdrawMission 0
scalar OsgEarthNet.uav[44] utilizationEnergyOverdrawMaintenance 0
scalar OsgEarthNet.uav[44] utilizationCountMissions 44
scalar OsgEarthNet.uav[44] utilizationCountManeuversMission 503
scalar OsgEarthNet.uav[44] utilizationCountManeuversMaintenance 88
scalar OsgEarthNet.uav[44] utilizationCountChargeState 44
scalar OsgEarthNet.uav[44] utilizationCountOverdrawnAfterMission 0
scalar OsgEarthNet.uav[44] utilizationCountIdleState 24
scalar OsgEarthNet.uav[44] utilizationFail 0
scalar OsgEarthNet.uav[44] simulationTime 259200
scalar OsgEarthNet.uav[45] utilizationSecMission 21598.838658294
scalar OsgEarthNet.uav[45] utilizationSecMaintenance 8737.6350104743
scalar OsgEarthNet.uav[45] utilizationSecCharge 107410
scalar OsgEarthNet.uav[45] utilizationSecIdle 121453.52533123
scalar OsgEarthNet.uav[45] utilizationEnergyMission 99964.015622513
scalar OsgEarthNet.uav[45] utilizationEnergyMaintenance 41103.42760849
scalar OsgEarthNet.uav[45] utilizationEnergyCharge 136760.17773438
scalar OsgEarthNet.uav[45] utilizationEnergyOverdrawMission 0
scalar OsgEarthNet.uav[45] utilizationEnergyOverdrawMaintenance 0
scalar OsgEarthNet.uav[45] utilizationCountMissions 29
scalar OsgEarthNet.uav[45] utilizationCountManeuversMission 349
scalar OsgEarthNet.uav[45] utilizationCountManeuversMaintenance 59
scalar OsgEarthNet.uav[45] utilizationCountChargeState 29
scalar OsgEarthNet.uav[45] utilizationCountOverdrawnAfterMission 0
scalar OsgEarthNet.uav[45] utilizationCountIdleState 26
scalar OsgEarthNet.uav[45] utilizationFail 0
scalar OsgEarthNet.uav[45] simulationTime 259200
scalar OsgEarthNet.uav[46] utilizationSecMission 34097.484958179
scalar OsgEarthNet.uav[46] utilizationSecMaintenance 11322.14441899
scalar OsgEarthNet.uav[46] utilizationSecCharge 160130.43277737
scalar OsgEarthNet.uav[46] utilizationSecIdle 53649.936845461
scalar OsgEarthNet.uav[46] utilizationEnergyMission 159205.35387421
scalar OsgEarthNet.uav[46] utilizationEnergyMaintenance 54844.805042267
scalar OsgEarthNet.uav[46] utilizationEnergyCharge 213841.59277344
scalar OsgEarthNet.uav[46] utilizationEnergyOverdrawMission 0
scalar OsgEarthNet.uav[46] utilizationEnergyOverdrawMaintenance 0
scalar OsgEarthNet.uav[46] utilizationCountMissions 46
scalar OsgEarthNet.uav[46] utilizationCountManeuversMission 522
scalar OsgEarthNet.uav[46] utilizationCountManeuversMaintenance 92
scalar OsgEarthNet.uav[46] utilizationCountChargeState 46
scalar OsgEarthNet.uav[46] utilizationCountOverdrawnAfterMission 0
scalar OsgEarthNet.uav[46] utilizationCountIdleState 16
scalar OsgEarthNet.uav[46] utilizationFail 0
scalar OsgEarthNet.uav[46] simulationTime 259200
scalar OsgEarthNet.uav[47] utilizationSecMission 17570.08331878
scalar OsgEarthNet.uav[47] utilizationSecMaintenance 9354.0085619757
scalar OsgEarthNet.uav[47] utilizationSecCharge 98310
scalar OsgEarthNet.uav[47] utilizationSecIdle 133965.90711924
scalar OsgEarthNet.uav[47] utilizationEnergyMission 82727.078857422
scalar OsgEarthNet.uav[47] utilizationEnergyMaintenance 43966.629559501
scalar OsgEarthNet.uav[47] utilizationEnergyCharge 126623.91552734
scalar OsgEarthNet.uav[47] utilizationEnergyOverdrawMission 0
scalar OsgEarthNet.uav[47] utilizationEnergyOverdrawMaintenance 0
scalar OsgEarthNet.uav[47] utilizationCountMissions 27
scalar OsgEarthNet.uav[47] utilizationCountManeuversMission 288
scalar OsgEarthNet.uav[47] utilizationCountManeuversMaintenance 55
scalar OsgEarthNet.uav[47] utilizationCountChargeState 27
scalar OsgEarthNet.uav[47] utilizationCountOverdrawnAfterMission 0
scalar OsgEarthNet.uav[47] utilizationCountIdleState 19
scalar OsgEarthNet.uav[47] utilizationFail 0
scalar OsgEarthNet.uav[47] simulationTime 259200
scalar OsgEarthNet.uav[48] utilizationSecMission 39604.333103592
scalar OsgEarthNet.uav[48] utilizationSecMaintenance 10358.242730942
scalar OsgEarthNet.uav[48] utilizationSecCharge 172056.71510824
scalar OsgEarthNet.uav[48] utilizationSecIdle 37180.708057228
scalar OsgEarthNet.uav[48] utilizationEnergyMission 180822.51535416
scalar OsgEarthNet.uav[48] utilizationEnergyMaintenance 48387.10931015
scalar OsgEarthNet.uav[48] utilizationEnergyCharge 229078.37695312
scalar OsgEarthNet.uav[48] utilizationEnergyOverdrawMission 0
scalar OsgEarthNet.uav[48] utilizationEnergyOverdrawMaintenance 0
scalar OsgEarthNet.uav[48] utilizationCountMissions 49
scalar OsgEarthNet.uav[48] utilizationCountManeuversMission 620
scalar OsgEarthNet.uav[48] utilizationCountManeuversMaintenance 98
scalar OsgEarthNet.uav[48] utilizationCountChargeState 49
scalar OsgEarthNet.uav[48] utilizationCountOverdrawnAfterMission 0
scalar OsgEarthNet.uav[48] utilizationCountIdleState 22
scalar OsgEarthNet.uav[48] utilizationFail 0
scalar OsgEarthNet.uav[48] simulationTime 259200
scalar OsgEarthNet.uav[49] utilizationSecMission 23868.109173622
scalar OsgEarthNet.uav[49] utilizationSecMaintenance 7746.3670767771
scalar OsgEarthNet.uav[49] utilizationSecCharge 113480
scalar OsgEarthNet.uav[49] utilizationSecIdle 114105.5227496
scalar OsgEarthNet.uav[49] utilizationEnergyMission 111099.49556732
scalar OsgEarthNet.uav[49] utilizationEnergyMaintenance 36879.924999237
scalar OsgEarthNet.uav[49] utilizationEnergyCharge 147869.47558594
scalar OsgEarthNet.uav[49] utilizationEnergyOverdrawMission 0
scalar OsgEarthNet.uav[49] utilizationEnergyOverdrawMaintenance 0
scalar OsgEarthNet.uav[49] utilizationCountMissions 32
scalar OsgEarthNet.uav[49] utilizationCountManeuversMission 365
scalar OsgEarthNet.uav[49] utilizationCountManeuversMaintenance 64
scalar OsgEarthNet.uav[49] utilizationCountChargeState 32
scalar OsgEarthNet.uav[49] utilizationCountOverdrawnAfterMission 0
scalar OsgEarthNet.uav[49] utilizationCountIdleState 15
scalar OsgEarthNet.uav[49] utilizationFail 0
scalar OsgEarthNet.uav[49] simulationTime 259200
scalar OsgEarthNet.cs[0] usedPower 164799.65088171
scalar OsgEarthNet.cs[0] chargedPower 164799.65088171
scalar OsgEarthNet.cs[0] chargedMobileNodes 15
scalar OsgEarthNet.cs[0] reservations 35
scalar OsgEarthNet.cs[1] usedPower 948883.53089424
scalar OsgEarthNet.cs[1] chargedPower 948883.53089424
scalar OsgEarthNet.cs[1] chargedMobileNodes 200
scalar OsgEarthNet.cs[1] reservations 203
scalar OsgEarthNet.cs[2] usedPower 1417303.8097158
scalar OsgEarthNet.cs[2] chargedPower 1417303.8097158
scalar OsgEarthNet.cs[2] chargedMobileNodes 136
scalar OsgEarthNet.cs[2] reservations 298
scalar OsgEarthNet.cs[3] usedPower 1698852.0621829
scalar OsgEarthNet.cs[3] chargedPower 1698852.0621829
scalar OsgEarthNet.cs[3] chargedMobileNodes 207
scalar OsgEarthNet.cs[3] reservations 364
scalar OsgEarthNet.cs[4] usedPower 632486.32993841
scalar OsgEarthNet.cs[4] chargedPower 632486.32993841
scalar OsgEarthNet.cs[4] chargedMobileNodes 99
scalar OsgEarthNet.cs[4] reservations 135
scalar OsgEarthNet.cs[5] usedPower 271068.38663565
scalar OsgEarthNet.cs[5] chargedPower 271068.38663565
scalar OsgEarthNet.cs[5] chargedMobileNodes 42
scalar OsgEarthNet.cs[5] reservations 57
scalar OsgEarthNet.cs[6] usedPower 2973901.9973302
scalar OsgEarthNet.cs[6] chargedPower 2973901.9973302
scalar OsgEarthNet.cs[6] chargedMobileNodes 269
scalar OsgEarthNet.cs[6] reservations 648

