version 2
run Szenario_Hotel_Gabelbach-21-20180710-14:17:20-1104
attr configname Szenario_Hotel_Gabelbach
attr datetime 20180710-14:17:20
attr experiment Szenario_Hotel_Gabelbach
attr inifile omnetpp.ini
attr iterationvars "$replM=0, $replSearchM=1"
attr iterationvarsf replM=0,replSearchM=1-
attr measurement "$replM=0, $replSearchM=1"
attr network OsgEarthNet
attr processid 1104
attr repetition 5
attr replication #5
attr resultdir results
attr runnumber 21
attr seedset 21
itervar replM 0
itervar replSearchM 1
param *.osgEarthScene.scene "\"Szenario_Hotel_Gabelbach.earth\""
param *.playgroundLatitude 50.6830269
param *.playgroundLongitude 10.8538055
param *.playgroundWidth 3500m
param *.playgroundHeight 3500m
param *.numUAVs 100
param *.cs[0].posX 3537m
param *.cs[0].posY 965m
param *.cs[0].posZ 538m
param *.cs[1].posX 312m
param *.cs[1].posY 1262m
param *.cs[1].posZ 539m
param *.cs[2].posX 2185m
param *.cs[2].posY 3026m
param *.cs[2].posZ 777m
param *.cs[3].posX 10m
param *.cs[3].posY 2200m
param *.cs[3].posZ 560m
param *.cs[4].posX 750m
param *.cs[4].posY 200m
param *.cs[4].posZ 540m
param *.cs[5].posX 2450m
param *.cs[5].posY 180m
param *.cs[5].posZ 524m
param *.cs[6].posX 3140m
param *.cs[6].posY 1790m
param *.cs[6].posZ 606m
param *.numCSs 7
param *.uav[*].replacementMethod 0
param *.missionControl.replacementSearchMethod 1
param *.*.timeStep 10s
param *.uav[*].commandPreviewCommandCount 20
param *.missionControl.missionFiles "\"missions\\\\Szenario_WB_Hotel_Gabelbach_Mission_Hotel.waypoints,missions\\\\Szenario_WB_Hotel_Gabelbach_Mission_Kickelhahn.waypoints,missions\\\\Szenario_WB_Hotel_Gabelbach_Mission_Ilmenau_Sportplatz.waypoints,missions\\\\Szenario_WB_Hotel_Gabelbach_Mission_Manebach_Mitte.waypoints,missions\\\\Szenario_WB_Hotel_Gabelbach_Mission_Manebach_Sued.waypoints\""
param *.missionControl.missionFiles "\"missions\\\\Szenario_WB_Hotel_Gabelbach_Mission_Hotel.waypoints,missions\\\\Szenario_WB_Hotel_Gabelbach_Mission_Kickelhahn.waypoints,missions\\\\Szenario_WB_Hotel_Gabelbach_Mission_Ilmenau_Sportplatz.waypoints,missions\\\\Szenario_WB_Hotel_Gabelbach_Mission_Manebach_Mitte.waypoints,missions\\\\Szenario_WB_Hotel_Gabelbach_Mission_Manebach_Sued.waypoints,missions\\\\Szenario_WB_Hotel_Gabelbach_Hover_HoheSchlaufe.waypoints,missions\\\\Szenario_WB_Hotel_Gabelbach_Hover_Kickelhahn.waypoints,missions\\\\Szenario_WB_Hotel_Gabelbach_Hover_Gabelbachskopf.waypoints,missions\\\\Szenario_WB_Hotel_Gabelbach_Hover_Dachskopf.waypoints\""
param *.uav[0].startX 3537m
param *.uav[0].startY 965m
param *.uav[0].startZ 539m
param *.uav[1].startX 312m
param *.uav[1].startY 1262m
param *.uav[1].startZ 540m
param *.uav[2].startX 2185m
param *.uav[2].startY 3026m
param *.uav[2].startZ 778m
param *.uav[3].startX 3537m
param *.uav[3].startY 965m
param *.uav[3].startZ 539m
param *.uav[4].startX 312m
param *.uav[4].startY 1262m
param *.uav[4].startZ 540m
param *.uav[5].startX 2185m
param *.uav[5].startY 3026m
param *.uav[5].startZ 778m
param *.uav[6].startX 3537m
param *.uav[6].startY 965m
param *.uav[6].startZ 539m
param *.uav[7].startX 312m
param *.uav[7].startY 1262m
param *.uav[7].startZ 540m
param *.uav[8].startX 2185m
param *.uav[8].startY 3026m
param *.uav[8].startZ 778m
param *.uav[9].startX 3537m
param *.uav[9].startY 965m
param *.uav[9].startZ 539m
param *.uav[10].startX 3537m
param *.uav[10].startY 965m
param *.uav[10].startZ 539m
param *.uav[11].startX 312m
param *.uav[11].startY 1262m
param *.uav[11].startZ 540m
param *.uav[12].startX 2185m
param *.uav[12].startY 3026m
param *.uav[12].startZ 778m
param *.uav[13].startX 3537m
param *.uav[13].startY 965m
param *.uav[13].startZ 539m
param *.uav[14].startX 312m
param *.uav[14].startY 1262m
param *.uav[14].startZ 540m
param *.uav[15].startX 2185m
param *.uav[15].startY 3026m
param *.uav[15].startZ 778m
param *.uav[16].startX 3537m
param *.uav[16].startY 965m
param *.uav[16].startZ 539m
param *.uav[17].startX 312m
param *.uav[17].startY 1262m
param *.uav[17].startZ 540m
param *.uav[18].startX 2185m
param *.uav[18].startY 3026m
param *.uav[18].startZ 778m
param *.uav[19].startX 3537m
param *.uav[19].startY 965m
param *.uav[19].startZ 539m
param *.uav[20].startX 3537m
param *.uav[20].startY 965m
param *.uav[20].startZ 539m
param *.uav[21].startX 312m
param *.uav[21].startY 1262m
param *.uav[21].startZ 540m
param *.uav[22].startX 2185m
param *.uav[22].startY 3026m
param *.uav[22].startZ 778m
param *.uav[23].startX 3537m
param *.uav[23].startY 965m
param *.uav[23].startZ 539m
param *.uav[24].startX 312m
param *.uav[24].startY 1262m
param *.uav[24].startZ 540m
param *.uav[25].startX 2185m
param *.uav[25].startY 3026m
param *.uav[25].startZ 778m
param *.uav[26].startX 3537m
param *.uav[26].startY 965m
param *.uav[26].startZ 539m
param *.uav[27].startX 312m
param *.uav[27].startY 1262m
param *.uav[27].startZ 540m
param *.uav[28].startX 2185m
param *.uav[28].startY 3026m
param *.uav[28].startZ 778m
param *.uav[29].startX 3537m
param *.uav[29].startY 965m
param *.uav[29].startZ 539m
param *.uav[30].startX 3537m
param *.uav[30].startY 965m
param *.uav[30].startZ 539m
param *.uav[31].startX 312m
param *.uav[31].startY 1262m
param *.uav[31].startZ 540m
param *.uav[32].startX 2185m
param *.uav[32].startY 3026m
param *.uav[32].startZ 778m
param *.uav[33].startX 3537m
param *.uav[33].startY 965m
param *.uav[33].startZ 539m
param *.uav[34].startX 312m
param *.uav[34].startY 1262m
param *.uav[34].startZ 540m
param *.uav[35].startX 2185m
param *.uav[35].startY 3026m
param *.uav[35].startZ 778m
param *.uav[36].startX 3537m
param *.uav[36].startY 965m
param *.uav[36].startZ 539m
param *.uav[37].startX 312m
param *.uav[37].startY 1262m
param *.uav[37].startZ 540m
param *.uav[38].startX 2185m
param *.uav[38].startY 3026m
param *.uav[38].startZ 778m
param *.uav[39].startX 3537m
param *.uav[39].startY 965m
param *.uav[39].startZ 539m
param *.uav[40].startX 3537m
param *.uav[40].startY 965m
param *.uav[40].startZ 539m
param *.uav[41].startX 312m
param *.uav[41].startY 1262m
param *.uav[41].startZ 540m
param *.uav[42].startX 2185m
param *.uav[42].startY 3026m
param *.uav[42].startZ 778m
param *.uav[43].startX 3537m
param *.uav[43].startY 965m
param *.uav[43].startZ 539m
param *.uav[44].startX 312m
param *.uav[44].startY 1262m
param *.uav[44].startZ 540m
param *.uav[45].startX 2185m
param *.uav[45].startY 3026m
param *.uav[45].startZ 778m
param *.uav[46].startX 3537m
param *.uav[46].startY 965m
param *.uav[46].startZ 539m
param *.uav[47].startX 312m
param *.uav[47].startY 1262m
param *.uav[47].startZ 540m
param *.uav[48].startX 2185m
param *.uav[48].startY 3026m
param *.uav[48].startZ 778m
param *.uav[49].startX 3537m
param *.uav[49].startY 965m
param *.uav[49].startZ 539m
param *.uav[50].startX 3537m
param *.uav[50].startY 965m
param *.uav[50].startZ 539m
param *.uav[51].startX 312m
param *.uav[51].startY 1262m
param *.uav[51].startZ 540m
param *.uav[52].startX 2185m
param *.uav[52].startY 3026m
param *.uav[52].startZ 778m
param *.uav[53].startX 3537m
param *.uav[53].startY 965m
param *.uav[53].startZ 539m
param *.uav[54].startX 312m
param *.uav[54].startY 1262m
param *.uav[54].startZ 540m
param *.uav[55].startX 2185m
param *.uav[55].startY 3026m
param *.uav[55].startZ 778m
param *.uav[56].startX 3537m
param *.uav[56].startY 965m
param *.uav[56].startZ 539m
param *.uav[57].startX 312m
param *.uav[57].startY 1262m
param *.uav[57].startZ 540m
param *.uav[58].startX 2185m
param *.uav[58].startY 3026m
param *.uav[58].startZ 778m
param *.uav[59].startX 3537m
param *.uav[59].startY 965m
param *.uav[59].startZ 539m
param *.uav[60].startX 3537m
param *.uav[60].startY 965m
param *.uav[60].startZ 539m
param *.uav[61].startX 312m
param *.uav[61].startY 1262m
param *.uav[61].startZ 540m
param *.uav[62].startX 2185m
param *.uav[62].startY 3026m
param *.uav[62].startZ 778m
param *.uav[63].startX 3537m
param *.uav[63].startY 965m
param *.uav[63].startZ 539m
param *.uav[64].startX 312m
param *.uav[64].startY 1262m
param *.uav[64].startZ 540m
param *.uav[65].startX 2185m
param *.uav[65].startY 3026m
param *.uav[65].startZ 778m
param *.uav[66].startX 3537m
param *.uav[66].startY 965m
param *.uav[66].startZ 539m
param *.uav[67].startX 312m
param *.uav[67].startY 1262m
param *.uav[67].startZ 540m
param *.uav[68].startX 2185m
param *.uav[68].startY 3026m
param *.uav[68].startZ 778m
param *.uav[69].startX 3537m
param *.uav[69].startY 965m
param *.uav[69].startZ 539m
param *.uav[70].startX 3537m
param *.uav[70].startY 965m
param *.uav[70].startZ 539m
param *.uav[71].startX 312m
param *.uav[71].startY 1262m
param *.uav[71].startZ 540m
param *.uav[72].startX 2185m
param *.uav[72].startY 3026m
param *.uav[72].startZ 778m
param *.uav[73].startX 3537m
param *.uav[73].startY 965m
param *.uav[73].startZ 539m
param *.uav[74].startX 312m
param *.uav[74].startY 1262m
param *.uav[74].startZ 540m
param *.uav[75].startX 2185m
param *.uav[75].startY 3026m
param *.uav[75].startZ 778m
param *.uav[76].startX 3537m
param *.uav[76].startY 965m
param *.uav[76].startZ 539m
param *.uav[77].startX 312m
param *.uav[77].startY 1262m
param *.uav[77].startZ 540m
param *.uav[78].startX 2185m
param *.uav[78].startY 3026m
param *.uav[78].startZ 778m
param *.uav[79].startX 3537m
param *.uav[79].startY 965m
param *.uav[79].startZ 539m
param *.uav[80].startX 3537m
param *.uav[80].startY 965m
param *.uav[80].startZ 539m
param *.uav[81].startX 312m
param *.uav[81].startY 1262m
param *.uav[81].startZ 540m
param *.uav[82].startX 2185m
param *.uav[82].startY 3026m
param *.uav[82].startZ 778m
param *.uav[83].startX 3537m
param *.uav[83].startY 965m
param *.uav[83].startZ 539m
param *.uav[84].startX 312m
param *.uav[84].startY 1262m
param *.uav[84].startZ 540m
param *.uav[85].startX 2185m
param *.uav[85].startY 3026m
param *.uav[85].startZ 778m
param *.uav[86].startX 3537m
param *.uav[86].startY 965m
param *.uav[86].startZ 539m
param *.uav[87].startX 312m
param *.uav[87].startY 1262m
param *.uav[87].startZ 540m
param *.uav[88].startX 2185m
param *.uav[88].startY 3026m
param *.uav[88].startZ 778m
param *.uav[89].startX 3537m
param *.uav[89].startY 965m
param *.uav[89].startZ 539m
param *.uav[90].startX 3537m
param *.uav[90].startY 965m
param *.uav[90].startZ 539m
param *.uav[91].startX 312m
param *.uav[91].startY 1262m
param *.uav[91].startZ 540m
param *.uav[92].startX 2185m
param *.uav[92].startY 3026m
param *.uav[92].startZ 778m
param *.uav[93].startX 3537m
param *.uav[93].startY 965m
param *.uav[93].startZ 539m
param *.uav[94].startX 312m
param *.uav[94].startY 1262m
param *.uav[94].startZ 540m
param *.uav[95].startX 2185m
param *.uav[95].startY 3026m
param *.uav[95].startZ 778m
param *.uav[96].startX 3537m
param *.uav[96].startY 965m
param *.uav[96].startZ 539m
param *.uav[97].startX 312m
param *.uav[97].startY 1262m
param *.uav[97].startZ 540m
param *.uav[98].startX 2185m
param *.uav[98].startY 3026m
param *.uav[98].startZ 778m
param *.uav[99].startX 3537m
param *.uav[99].startY 965m
param *.uav[99].startZ 539m
param *.osgEarthScene.scene "\"boston.earth\""
param *.playgroundLatitude 42.3558
param *.playgroundLongitude -71.0677
param *.playgroundWidth 400m
param *.playgroundHeight 200m
param *.channelController.connectionColor "\"#0000FF40\""
param *.channelController.showConnections false
param *.uav[*].modelURL "\"quadrocopter.small.obj.15.scale.0,0,90.rot\""
param *.uav[*].labelColor "\"#FF7C00CC\""
param *.uav[*].label2Color "\"#FF7C00EE\""
param *.uav[*].batteryCapacity 5200mAh
param *.uav[*].batteryRemaining uav[index].batteryCapacity
param *.uav[*].predictionQuantile 0.95
param *.uav[*].replacementMethod 2
param *.uav[*].weightedSumWeight 0.5
param *.cs[*].modelURL "\"chargingstation_v1.osgt.2.scale.0,0,0.rot.0,0,-15e-1.trans\""
param *.cs[*].spotsWaiting 999
param *.cs[*].spotsCharging 999
param *.cs[*].chargeEffectivenessPercentage 100
param *.cs[*].nonLinearPhaseStartPercentage 85
param *.cs[*].chargeCurrent 6.0A
param *.cs[*].prioritizeFastCharge true
param *.missionControl.replacementSearchMethod 0
param *.*.timeStep 9s

scalar OsgEarthNet.uav[0] utilizationSecMission 14486.013051888
scalar OsgEarthNet.uav[0] utilizationSecMaintenance 4515.9507073033
scalar OsgEarthNet.uav[0] utilizationSecCharge 67040.85930145
scalar OsgEarthNet.uav[0] utilizationSecIdle 173157.17593936
scalar OsgEarthNet.uav[0] utilizationEnergyMission 66442.380577087
scalar OsgEarthNet.uav[0] utilizationEnergyMaintenance 21867.572250366
scalar OsgEarthNet.uav[0] utilizationEnergyCharge 85458.603515625
scalar OsgEarthNet.uav[0] utilizationEnergyOverdrawMission 0
scalar OsgEarthNet.uav[0] utilizationEnergyOverdrawMaintenance 0
scalar OsgEarthNet.uav[0] utilizationCountMissions 19
scalar OsgEarthNet.uav[0] utilizationCountManeuversMission 220
scalar OsgEarthNet.uav[0] utilizationCountManeuversMaintenance 38
scalar OsgEarthNet.uav[0] utilizationCountChargeState 19
scalar OsgEarthNet.uav[0] utilizationCountOverdrawnAfterMission 0
scalar OsgEarthNet.uav[0] utilizationCountIdleState 13
scalar OsgEarthNet.uav[0] utilizationFail 0
scalar OsgEarthNet.uav[0] simulationTime 259200
scalar OsgEarthNet.uav[1] utilizationSecMission 655.55330183502
scalar OsgEarthNet.uav[1] utilizationSecMaintenance 334.5505930207
scalar OsgEarthNet.uav[1] utilizationSecCharge 3790
scalar OsgEarthNet.uav[1] utilizationSecIdle 254419.89510514
scalar OsgEarthNet.uav[1] utilizationEnergyMission 3060.4617462158
scalar OsgEarthNet.uav[1] utilizationEnergyMaintenance 1732.4478874206
scalar OsgEarthNet.uav[1] utilizationEnergyCharge 4792.90625
scalar OsgEarthNet.uav[1] utilizationEnergyOverdrawMission 0
scalar OsgEarthNet.uav[1] utilizationEnergyOverdrawMaintenance 0
scalar OsgEarthNet.uav[1] utilizationCountMissions 1
scalar OsgEarthNet.uav[1] utilizationCountManeuversMission 10
scalar OsgEarthNet.uav[1] utilizationCountManeuversMaintenance 2
scalar OsgEarthNet.uav[1] utilizationCountChargeState 1
scalar OsgEarthNet.uav[1] utilizationCountOverdrawnAfterMission 0
scalar OsgEarthNet.uav[1] utilizationCountIdleState 2
scalar OsgEarthNet.uav[1] utilizationFail 0
scalar OsgEarthNet.uav[1] simulationTime 259200
scalar OsgEarthNet.uav[2] utilizationSecMission 1538.6835726934
scalar OsgEarthNet.uav[2] utilizationSecMaintenance 507.59265433951
scalar OsgEarthNet.uav[2] utilizationSecCharge 7480
scalar OsgEarthNet.uav[2] utilizationSecIdle 249673.72277297
scalar OsgEarthNet.uav[2] utilizationEnergyMission 7027.2229385376
scalar OsgEarthNet.uav[2] utilizationEnergyMaintenance 2463.2238388062
scalar OsgEarthNet.uav[2] utilizationEnergyCharge 9363.2895507812
scalar OsgEarthNet.uav[2] utilizationEnergyOverdrawMission 0
scalar OsgEarthNet.uav[2] utilizationEnergyOverdrawMaintenance 0
scalar OsgEarthNet.uav[2] utilizationCountMissions 2
scalar OsgEarthNet.uav[2] utilizationCountManeuversMission 26
scalar OsgEarthNet.uav[2] utilizationCountManeuversMaintenance 4
scalar OsgEarthNet.uav[2] utilizationCountChargeState 2
scalar OsgEarthNet.uav[2] utilizationCountOverdrawnAfterMission 0
scalar OsgEarthNet.uav[2] utilizationCountIdleState 3
scalar OsgEarthNet.uav[2] utilizationFail 0
scalar OsgEarthNet.uav[2] simulationTime 259200
scalar OsgEarthNet.uav[3] utilizationSecMission 10304.009793761
scalar OsgEarthNet.uav[3] utilizationSecMaintenance 3411.6444551721
scalar OsgEarthNet.uav[3] utilizationSecCharge 51870
scalar OsgEarthNet.uav[3] utilizationSecIdle 193614.34475107
scalar OsgEarthNet.uav[3] utilizationEnergyMission 48278.702667236
scalar OsgEarthNet.uav[3] utilizationEnergyMaintenance 16500.433998108
scalar OsgEarthNet.uav[3] utilizationEnergyCharge 64679.720703125
scalar OsgEarthNet.uav[3] utilizationEnergyOverdrawMission 0
scalar OsgEarthNet.uav[3] utilizationEnergyOverdrawMaintenance 0
scalar OsgEarthNet.uav[3] utilizationCountMissions 14
scalar OsgEarthNet.uav[3] utilizationCountManeuversMission 156
scalar OsgEarthNet.uav[3] utilizationCountManeuversMaintenance 28
scalar OsgEarthNet.uav[3] utilizationCountChargeState 14
scalar OsgEarthNet.uav[3] utilizationCountOverdrawnAfterMission 0
scalar OsgEarthNet.uav[3] utilizationCountIdleState 15
scalar OsgEarthNet.uav[3] utilizationFail 0
scalar OsgEarthNet.uav[3] simulationTime 259200
scalar OsgEarthNet.uav[4] utilizationSecMission 655.55330183502
scalar OsgEarthNet.uav[4] utilizationSecMaintenance 334.5505930207
scalar OsgEarthNet.uav[4] utilizationSecCharge 3800
scalar OsgEarthNet.uav[4] utilizationSecIdle 254409.89510514
scalar OsgEarthNet.uav[4] utilizationEnergyMission 3058.4000091553
scalar OsgEarthNet.uav[4] utilizationEnergyMaintenance 1758.09608078
scalar OsgEarthNet.uav[4] utilizationEnergyCharge 4816.4912109375
scalar OsgEarthNet.uav[4] utilizationEnergyOverdrawMission 0
scalar OsgEarthNet.uav[4] utilizationEnergyOverdrawMaintenance 0
scalar OsgEarthNet.uav[4] utilizationCountMissions 1
scalar OsgEarthNet.uav[4] utilizationCountManeuversMission 10
scalar OsgEarthNet.uav[4] utilizationCountManeuversMaintenance 2
scalar OsgEarthNet.uav[4] utilizationCountChargeState 1
scalar OsgEarthNet.uav[4] utilizationCountOverdrawnAfterMission 0
scalar OsgEarthNet.uav[4] utilizationCountIdleState 2
scalar OsgEarthNet.uav[4] utilizationFail 0
scalar OsgEarthNet.uav[4] simulationTime 259200
scalar OsgEarthNet.uav[5] utilizationSecMission 3856.3533006205
scalar OsgEarthNet.uav[5] utilizationSecMaintenance 1358.3825240888
scalar OsgEarthNet.uav[5] utilizationSecCharge 19010
scalar OsgEarthNet.uav[5] utilizationSecIdle 234975.26317529
scalar OsgEarthNet.uav[5] utilizationEnergyMission 17138.692115784
scalar OsgEarthNet.uav[5] utilizationEnergyMaintenance 6248.5886192322
scalar OsgEarthNet.uav[5] utilizationEnergyCharge 23903.896484375
scalar OsgEarthNet.uav[5] utilizationEnergyOverdrawMission 0
scalar OsgEarthNet.uav[5] utilizationEnergyOverdrawMaintenance 0
scalar OsgEarthNet.uav[5] utilizationCountMissions 5
scalar OsgEarthNet.uav[5] utilizationCountManeuversMission 67
scalar OsgEarthNet.uav[5] utilizationCountManeuversMaintenance 10
scalar OsgEarthNet.uav[5] utilizationCountChargeState 5
scalar OsgEarthNet.uav[5] utilizationCountOverdrawnAfterMission 0
scalar OsgEarthNet.uav[5] utilizationCountIdleState 6
scalar OsgEarthNet.uav[5] utilizationFail 0
scalar OsgEarthNet.uav[5] simulationTime 259200
scalar OsgEarthNet.uav[6] utilizationSecMission 17902.049485943
scalar OsgEarthNet.uav[6] utilizationSecMaintenance 5879.8910818617
scalar OsgEarthNet.uav[6] utilizationSecCharge 86860
scalar OsgEarthNet.uav[6] utilizationSecIdle 148558.05843219
scalar OsgEarthNet.uav[6] utilizationEnergyMission 83125.874969482
scalar OsgEarthNet.uav[6] utilizationEnergyMaintenance 28487.321341931
scalar OsgEarthNet.uav[6] utilizationEnergyCharge 111280.91992188
scalar OsgEarthNet.uav[6] utilizationEnergyOverdrawMission 0
scalar OsgEarthNet.uav[6] utilizationEnergyOverdrawMaintenance 0
scalar OsgEarthNet.uav[6] utilizationCountMissions 24
scalar OsgEarthNet.uav[6] utilizationCountManeuversMission 274
scalar OsgEarthNet.uav[6] utilizationCountManeuversMaintenance 49
scalar OsgEarthNet.uav[6] utilizationCountChargeState 24
scalar OsgEarthNet.uav[6] utilizationCountOverdrawnAfterMission 0
scalar OsgEarthNet.uav[6] utilizationCountIdleState 15
scalar OsgEarthNet.uav[6] utilizationFail 0
scalar OsgEarthNet.uav[6] simulationTime 259200
scalar OsgEarthNet.uav[7] utilizationSecMission 1967.6014882953
scalar OsgEarthNet.uav[7] utilizationSecMaintenance 1129.4139392568
scalar OsgEarthNet.uav[7] utilizationSecCharge 11440
scalar OsgEarthNet.uav[7] utilizationSecIdle 244662.98357245
scalar OsgEarthNet.uav[7] utilizationEnergyMission 9174.2711868286
scalar OsgEarthNet.uav[7] utilizationEnergyMaintenance 5232.0346832275
scalar OsgEarthNet.uav[7] utilizationEnergyCharge 14406.298828125
scalar OsgEarthNet.uav[7] utilizationEnergyOverdrawMission 0
scalar OsgEarthNet.uav[7] utilizationEnergyOverdrawMaintenance 0
scalar OsgEarthNet.uav[7] utilizationCountMissions 3
scalar OsgEarthNet.uav[7] utilizationCountManeuversMission 34
scalar OsgEarthNet.uav[7] utilizationCountManeuversMaintenance 6
scalar OsgEarthNet.uav[7] utilizationCountChargeState 3
scalar OsgEarthNet.uav[7] utilizationCountOverdrawnAfterMission 0
scalar OsgEarthNet.uav[7] utilizationCountIdleState 4
scalar OsgEarthNet.uav[7] utilizationFail 0
scalar OsgEarthNet.uav[7] simulationTime 259200
scalar OsgEarthNet.uav[8] utilizationSecMission 3057.5722698287
scalar OsgEarthNet.uav[8] utilizationSecMaintenance 1019.1253314351
scalar OsgEarthNet.uav[8] utilizationSecCharge 15120
scalar OsgEarthNet.uav[8] utilizationSecIdle 240003.30139874
scalar OsgEarthNet.uav[8] utilizationEnergyMission 14475.879989624
scalar OsgEarthNet.uav[8] utilizationEnergyMaintenance 4729.6805686951
scalar OsgEarthNet.uav[8] utilizationEnergyCharge 19030.185546875
scalar OsgEarthNet.uav[8] utilizationEnergyOverdrawMission 0
scalar OsgEarthNet.uav[8] utilizationEnergyOverdrawMaintenance 0
scalar OsgEarthNet.uav[8] utilizationCountMissions 4
scalar OsgEarthNet.uav[8] utilizationCountManeuversMission 48
scalar OsgEarthNet.uav[8] utilizationCountManeuversMaintenance 8
scalar OsgEarthNet.uav[8] utilizationCountChargeState 4
scalar OsgEarthNet.uav[8] utilizationCountOverdrawnAfterMission 0
scalar OsgEarthNet.uav[8] utilizationCountIdleState 5
scalar OsgEarthNet.uav[8] utilizationFail 0
scalar OsgEarthNet.uav[8] simulationTime 259200
scalar OsgEarthNet.uav[9] utilizationSecMission 2055.6903976728
scalar OsgEarthNet.uav[9] utilizationSecMaintenance 912.50776585032
scalar OsgEarthNet.uav[9] utilizationSecCharge 11050
scalar OsgEarthNet.uav[9] utilizationSecIdle 245181.80083648
scalar OsgEarthNet.uav[9] utilizationEnergyMission 9373.3991241455
scalar OsgEarthNet.uav[9] utilizationEnergyMaintenance 4412.1968231201
scalar OsgEarthNet.uav[9] utilizationEnergyCharge 13767.892089844
scalar OsgEarthNet.uav[9] utilizationEnergyOverdrawMission 0
scalar OsgEarthNet.uav[9] utilizationEnergyOverdrawMaintenance 0
scalar OsgEarthNet.uav[9] utilizationCountMissions 3
scalar OsgEarthNet.uav[9] utilizationCountManeuversMission 31
scalar OsgEarthNet.uav[9] utilizationCountManeuversMaintenance 6
scalar OsgEarthNet.uav[9] utilizationCountChargeState 3
scalar OsgEarthNet.uav[9] utilizationCountOverdrawnAfterMission 0
scalar OsgEarthNet.uav[9] utilizationCountIdleState 4
scalar OsgEarthNet.uav[9] utilizationFail 0
scalar OsgEarthNet.uav[9] simulationTime 259200
scalar OsgEarthNet.uav[10] utilizationSecMission 14646.392973915
scalar OsgEarthNet.uav[10] utilizationSecMaintenance 4888.625206927
scalar OsgEarthNet.uav[10] utilizationSecCharge 73090
scalar OsgEarthNet.uav[10] utilizationSecIdle 166574.98081916
scalar OsgEarthNet.uav[10] utilizationEnergyMission 67792.236877441
scalar OsgEarthNet.uav[10] utilizationEnergyMaintenance 23047.071163178
scalar OsgEarthNet.uav[10] utilizationEnergyCharge 90839.316894531
scalar OsgEarthNet.uav[10] utilizationEnergyOverdrawMission 0
scalar OsgEarthNet.uav[10] utilizationEnergyOverdrawMaintenance 0
scalar OsgEarthNet.uav[10] utilizationCountMissions 20
scalar OsgEarthNet.uav[10] utilizationCountManeuversMission 223
scalar OsgEarthNet.uav[10] utilizationCountManeuversMaintenance 40
scalar OsgEarthNet.uav[10] utilizationCountChargeState 20
scalar OsgEarthNet.uav[10] utilizationCountOverdrawnAfterMission 0
scalar OsgEarthNet.uav[10] utilizationCountIdleState 21
scalar OsgEarthNet.uav[10] utilizationFail 0
scalar OsgEarthNet.uav[10] simulationTime 259200
scalar OsgEarthNet.uav[11] utilizationSecMission 698.45058753696
scalar OsgEarthNet.uav[11] utilizationSecMaintenance 321.40558798357
scalar OsgEarthNet.uav[11] utilizationSecCharge 3730
scalar OsgEarthNet.uav[11] utilizationSecIdle 254450.14282448
scalar OsgEarthNet.uav[11] utilizationEnergyMission 3031.3840942383
scalar OsgEarthNet.uav[11] utilizationEnergyMaintenance 1638.6864852905
scalar OsgEarthNet.uav[11] utilizationEnergyCharge 4670.0712890625
scalar OsgEarthNet.uav[11] utilizationEnergyOverdrawMission 0
scalar OsgEarthNet.uav[11] utilizationEnergyOverdrawMaintenance 0
scalar OsgEarthNet.uav[11] utilizationCountMissions 1
scalar OsgEarthNet.uav[11] utilizationCountManeuversMission 11
scalar OsgEarthNet.uav[11] utilizationCountManeuversMaintenance 2
scalar OsgEarthNet.uav[11] utilizationCountChargeState 1
scalar OsgEarthNet.uav[11] utilizationCountOverdrawnAfterMission 0
scalar OsgEarthNet.uav[11] utilizationCountIdleState 2
scalar OsgEarthNet.uav[11] utilizationFail 0
scalar OsgEarthNet.uav[11] simulationTime 259200
scalar OsgEarthNet.uav[12] utilizationSecMission 2275.1774976601
scalar OsgEarthNet.uav[12] utilizationSecMaintenance 816.02214568496
scalar OsgEarthNet.uav[12] utilizationSecCharge 7730
scalar OsgEarthNet.uav[12] utilizationSecIdle 248378.79935665
scalar OsgEarthNet.uav[12] utilizationEnergyMission 10545.390731812
scalar OsgEarthNet.uav[12] utilizationEnergyMaintenance 3816.6512132913
scalar OsgEarthNet.uav[12] utilizationEnergyCharge 9787.7763671875
scalar OsgEarthNet.uav[12] utilizationEnergyOverdrawMission 0
scalar OsgEarthNet.uav[12] utilizationEnergyOverdrawMaintenance 0
scalar OsgEarthNet.uav[12] utilizationCountMissions 3
scalar OsgEarthNet.uav[12] utilizationCountManeuversMission 40
scalar OsgEarthNet.uav[12] utilizationCountManeuversMaintenance 6
scalar OsgEarthNet.uav[12] utilizationCountChargeState 2
scalar OsgEarthNet.uav[12] utilizationCountOverdrawnAfterMission 0
scalar OsgEarthNet.uav[12] utilizationCountIdleState 3
scalar OsgEarthNet.uav[12] utilizationFail 0
scalar OsgEarthNet.uav[12] simulationTime 259200
scalar OsgEarthNet.uav[13] utilizationSecMission 1870.3775173257
scalar OsgEarthNet.uav[13] utilizationSecMaintenance 1178.518878468
scalar OsgEarthNet.uav[13] utilizationSecCharge 11380
scalar OsgEarthNet.uav[13] utilizationSecIdle 244771.10260421
scalar OsgEarthNet.uav[13] utilizationEnergyMission 8728.6901016235
scalar OsgEarthNet.uav[13] utilizationEnergyMaintenance 5550.9613380432
scalar OsgEarthNet.uav[13] utilizationEnergyCharge 14279.647949219
scalar OsgEarthNet.uav[13] utilizationEnergyOverdrawMission 0
scalar OsgEarthNet.uav[13] utilizationEnergyOverdrawMaintenance 0
scalar OsgEarthNet.uav[13] utilizationCountMissions 3
scalar OsgEarthNet.uav[13] utilizationCountManeuversMission 30
scalar OsgEarthNet.uav[13] utilizationCountManeuversMaintenance 6
scalar OsgEarthNet.uav[13] utilizationCountChargeState 3
scalar OsgEarthNet.uav[13] utilizationCountOverdrawnAfterMission 0
scalar OsgEarthNet.uav[13] utilizationCountIdleState 4
scalar OsgEarthNet.uav[13] utilizationFail 0
scalar OsgEarthNet.uav[13] simulationTime 259200
scalar OsgEarthNet.uav[14] utilizationSecMission 3882.362295749
scalar OsgEarthNet.uav[14] utilizationSecMaintenance 2296.3630148326
scalar OsgEarthNet.uav[14] utilizationSecCharge 22950
scalar OsgEarthNet.uav[14] utilizationSecIdle 230071.27368942
scalar OsgEarthNet.uav[14] utilizationEnergyMission 18070.957473755
scalar OsgEarthNet.uav[14] utilizationEnergyMaintenance 10915.290393829
scalar OsgEarthNet.uav[14] utilizationEnergyCharge 28986.247070312
scalar OsgEarthNet.uav[14] utilizationEnergyOverdrawMission 0
scalar OsgEarthNet.uav[14] utilizationEnergyOverdrawMaintenance 0
scalar OsgEarthNet.uav[14] utilizationCountMissions 6
scalar OsgEarthNet.uav[14] utilizationCountManeuversMission 67
scalar OsgEarthNet.uav[14] utilizationCountManeuversMaintenance 12
scalar OsgEarthNet.uav[14] utilizationCountChargeState 6
scalar OsgEarthNet.uav[14] utilizationCountOverdrawnAfterMission 0
scalar OsgEarthNet.uav[14] utilizationCountIdleState 7
scalar OsgEarthNet.uav[14] utilizationFail 0
scalar OsgEarthNet.uav[14] simulationTime 259200
scalar OsgEarthNet.uav[15] utilizationSecMission 6812.5207083218
scalar OsgEarthNet.uav[15] utilizationSecMaintenance 1688.0653427647
scalar OsgEarthNet.uav[15] utilizationSecCharge 28808.704891824
scalar OsgEarthNet.uav[15] utilizationSecIdle 221890.70805709
scalar OsgEarthNet.uav[15] utilizationEnergyMission 30879.50062561
scalar OsgEarthNet.uav[15] utilizationEnergyMaintenance 8153.0408935547
scalar OsgEarthNet.uav[15] utilizationEnergyCharge 37239.483154297
scalar OsgEarthNet.uav[15] utilizationEnergyOverdrawMission 0
scalar OsgEarthNet.uav[15] utilizationEnergyOverdrawMaintenance 0
scalar OsgEarthNet.uav[15] utilizationCountMissions 8
scalar OsgEarthNet.uav[15] utilizationCountManeuversMission 112
scalar OsgEarthNet.uav[15] utilizationCountManeuversMaintenance 16
scalar OsgEarthNet.uav[15] utilizationCountChargeState 8
scalar OsgEarthNet.uav[15] utilizationCountOverdrawnAfterMission 0
scalar OsgEarthNet.uav[15] utilizationCountIdleState 8
scalar OsgEarthNet.uav[15] utilizationFail 0
scalar OsgEarthNet.uav[15] simulationTime 259200
scalar OsgEarthNet.uav[16] utilizationSecMission 6956.5704665558
scalar OsgEarthNet.uav[16] utilizationSecMaintenance 3179.0324299801
scalar OsgEarthNet.uav[16] utilizationSecCharge 37160
scalar OsgEarthNet.uav[16] utilizationSecIdle 211904.39610346
scalar OsgEarthNet.uav[16] utilizationEnergyMission 32435.110641479
scalar OsgEarthNet.uav[16] utilizationEnergyMaintenance 14809.814121246
scalar OsgEarthNet.uav[16] utilizationEnergyCharge 47244.920410156
scalar OsgEarthNet.uav[16] utilizationEnergyOverdrawMission 0
scalar OsgEarthNet.uav[16] utilizationEnergyOverdrawMaintenance 0
scalar OsgEarthNet.uav[16] utilizationCountMissions 10
scalar OsgEarthNet.uav[16] utilizationCountManeuversMission 110
scalar OsgEarthNet.uav[16] utilizationCountManeuversMaintenance 20
scalar OsgEarthNet.uav[16] utilizationCountChargeState 10
scalar OsgEarthNet.uav[16] utilizationCountOverdrawnAfterMission 0
scalar OsgEarthNet.uav[16] utilizationCountIdleState 10
scalar OsgEarthNet.uav[16] utilizationFail 0
scalar OsgEarthNet.uav[16] simulationTime 259200
scalar OsgEarthNet.uav[17] utilizationSecMission 2656.5398398239
scalar OsgEarthNet.uav[17] utilizationSecMaintenance 1437.2403145625
scalar OsgEarthNet.uav[17] utilizationSecCharge 14940
scalar OsgEarthNet.uav[17] utilizationSecIdle 240166.21884561
scalar OsgEarthNet.uav[17] utilizationEnergyMission 11719.567901611
scalar OsgEarthNet.uav[17] utilizationEnergyMaintenance 6988.04246521
scalar OsgEarthNet.uav[17] utilizationEnergyCharge 18707.604003906
scalar OsgEarthNet.uav[17] utilizationEnergyOverdrawMission 0
scalar OsgEarthNet.uav[17] utilizationEnergyOverdrawMaintenance 0
scalar OsgEarthNet.uav[17] utilizationCountMissions 4
scalar OsgEarthNet.uav[17] utilizationCountManeuversMission 44
scalar OsgEarthNet.uav[17] utilizationCountManeuversMaintenance 8
scalar OsgEarthNet.uav[17] utilizationCountChargeState 4
scalar OsgEarthNet.uav[17] utilizationCountOverdrawnAfterMission 0
scalar OsgEarthNet.uav[17] utilizationCountIdleState 5
scalar OsgEarthNet.uav[17] utilizationFail 0
scalar OsgEarthNet.uav[17] simulationTime 259200
scalar OsgEarthNet.uav[18] utilizationSecMission 9297.5621520837
scalar OsgEarthNet.uav[18] utilizationSecMaintenance 3199.812801592
scalar OsgEarthNet.uav[18] utilizationSecCharge 45570
scalar OsgEarthNet.uav[18] utilizationSecIdle 201132.62404632
scalar OsgEarthNet.uav[18] utilizationEnergyMission 43050.448066711
scalar OsgEarthNet.uav[18] utilizationEnergyMaintenance 14812.20904541
scalar OsgEarthNet.uav[18] utilizationEnergyCharge 57342.877929688
scalar OsgEarthNet.uav[18] utilizationEnergyOverdrawMission 0
scalar OsgEarthNet.uav[18] utilizationEnergyOverdrawMaintenance 0
scalar OsgEarthNet.uav[18] utilizationCountMissions 12
scalar OsgEarthNet.uav[18] utilizationCountManeuversMission 157
scalar OsgEarthNet.uav[18] utilizationCountManeuversMaintenance 24
scalar OsgEarthNet.uav[18] utilizationCountChargeState 12
scalar OsgEarthNet.uav[18] utilizationCountOverdrawnAfterMission 0
scalar OsgEarthNet.uav[18] utilizationCountIdleState 13
scalar OsgEarthNet.uav[18] utilizationFail 0
scalar OsgEarthNet.uav[18] simulationTime 259200
scalar OsgEarthNet.uav[19] utilizationSecMission 7421.7313405948
scalar OsgEarthNet.uav[19] utilizationSecMaintenance 3457.0450470992
scalar OsgEarthNet.uav[19] utilizationSecCharge 40600
scalar OsgEarthNet.uav[19] utilizationSecIdle 207721.22261231
scalar OsgEarthNet.uav[19] utilizationEnergyMission 34928.057601929
scalar OsgEarthNet.uav[19] utilizationEnergyMaintenance 16630.573886871
scalar OsgEarthNet.uav[19] utilizationEnergyCharge 51558.638183594
scalar OsgEarthNet.uav[19] utilizationEnergyOverdrawMission 0
scalar OsgEarthNet.uav[19] utilizationEnergyOverdrawMaintenance 0
scalar OsgEarthNet.uav[19] utilizationCountMissions 11
scalar OsgEarthNet.uav[19] utilizationCountManeuversMission 125
scalar OsgEarthNet.uav[19] utilizationCountManeuversMaintenance 21
scalar OsgEarthNet.uav[19] utilizationCountChargeState 11
scalar OsgEarthNet.uav[19] utilizationCountOverdrawnAfterMission 0
scalar OsgEarthNet.uav[19] utilizationCountIdleState 9
scalar OsgEarthNet.uav[19] utilizationFail 0
scalar OsgEarthNet.uav[19] simulationTime 259200
scalar OsgEarthNet.uav[20] utilizationSecMission 6893.9598072973
scalar OsgEarthNet.uav[20] utilizationSecMaintenance 3089.5864417919
scalar OsgEarthNet.uav[20] utilizationSecCharge 37220
scalar OsgEarthNet.uav[20] utilizationSecIdle 211996.45275091
scalar OsgEarthNet.uav[20] utilizationEnergyMission 31858.981994629
scalar OsgEarthNet.uav[20] utilizationEnergyMaintenance 14554.244010925
scalar OsgEarthNet.uav[20] utilizationEnergyCharge 46413.217285156
scalar OsgEarthNet.uav[20] utilizationEnergyOverdrawMission 0
scalar OsgEarthNet.uav[20] utilizationEnergyOverdrawMaintenance 0
scalar OsgEarthNet.uav[20] utilizationCountMissions 10
scalar OsgEarthNet.uav[20] utilizationCountManeuversMission 108
scalar OsgEarthNet.uav[20] utilizationCountManeuversMaintenance 20
scalar OsgEarthNet.uav[20] utilizationCountChargeState 10
scalar OsgEarthNet.uav[20] utilizationCountOverdrawnAfterMission 0
scalar OsgEarthNet.uav[20] utilizationCountIdleState 11
scalar OsgEarthNet.uav[20] utilizationFail 0
scalar OsgEarthNet.uav[20] simulationTime 259200
scalar OsgEarthNet.uav[21] utilizationSecMission 13159.605269977
scalar OsgEarthNet.uav[21] utilizationSecMaintenance 5466.3806423788
scalar OsgEarthNet.uav[21] utilizationSecCharge 68209.941711749
scalar OsgEarthNet.uav[21] utilizationSecIdle 172364.0713759
scalar OsgEarthNet.uav[21] utilizationEnergyMission 61616.740150452
scalar OsgEarthNet.uav[21] utilizationEnergyMaintenance 26121.701267242
scalar OsgEarthNet.uav[21] utilizationEnergyCharge 86513.532714844
scalar OsgEarthNet.uav[21] utilizationEnergyOverdrawMission 0
scalar OsgEarthNet.uav[21] utilizationEnergyOverdrawMaintenance 0
scalar OsgEarthNet.uav[21] utilizationCountMissions 19
scalar OsgEarthNet.uav[21] utilizationCountManeuversMission 210
scalar OsgEarthNet.uav[21] utilizationCountManeuversMaintenance 38
scalar OsgEarthNet.uav[21] utilizationCountChargeState 19
scalar OsgEarthNet.uav[21] utilizationCountOverdrawnAfterMission 0
scalar OsgEarthNet.uav[21] utilizationCountIdleState 18
scalar OsgEarthNet.uav[21] utilizationFail 0
scalar OsgEarthNet.uav[21] simulationTime 259200
scalar OsgEarthNet.uav[22] utilizationSecMission 24583.156764439
scalar OsgEarthNet.uav[22] utilizationSecMaintenance 7761.7195185087
scalar OsgEarthNet.uav[22] utilizationSecCharge 114733.12271705
scalar OsgEarthNet.uav[22] utilizationSecIdle 112122
scalar OsgEarthNet.uav[22] utilizationEnergyMission 112878.71005412
scalar OsgEarthNet.uav[22] utilizationEnergyMaintenance 35898.42357254
scalar OsgEarthNet.uav[22] utilizationEnergyCharge 144628.47131348
scalar OsgEarthNet.uav[22] utilizationEnergyOverdrawMission 0
scalar OsgEarthNet.uav[22] utilizationEnergyOverdrawMaintenance 0
scalar OsgEarthNet.uav[22] utilizationCountMissions 31
scalar OsgEarthNet.uav[22] utilizationCountManeuversMission 416
scalar OsgEarthNet.uav[22] utilizationCountManeuversMaintenance 61
scalar OsgEarthNet.uav[22] utilizationCountChargeState 31
scalar OsgEarthNet.uav[22] utilizationCountOverdrawnAfterMission 0
scalar OsgEarthNet.uav[22] utilizationCountIdleState 31
scalar OsgEarthNet.uav[22] utilizationFail 0
scalar OsgEarthNet.uav[22] simulationTime 259200
scalar OsgEarthNet.uav[23] utilizationSecMission 1669.0232784012
scalar OsgEarthNet.uav[23] utilizationSecMaintenance 1365.470414776
scalar OsgEarthNet.uav[23] utilizationSecCharge 11460
scalar OsgEarthNet.uav[23] utilizationSecIdle 244705.50530682
scalar OsgEarthNet.uav[23] utilizationEnergyMission 7856.3827667236
scalar OsgEarthNet.uav[23] utilizationEnergyMaintenance 6587.0738258362
scalar OsgEarthNet.uav[23] utilizationEnergyCharge 14443.454589844
scalar OsgEarthNet.uav[23] utilizationEnergyOverdrawMission 0
scalar OsgEarthNet.uav[23] utilizationEnergyOverdrawMaintenance 0
scalar OsgEarthNet.uav[23] utilizationCountMissions 3
scalar OsgEarthNet.uav[23] utilizationCountManeuversMission 28
scalar OsgEarthNet.uav[23] utilizationCountManeuversMaintenance 6
scalar OsgEarthNet.uav[23] utilizationCountChargeState 3
scalar OsgEarthNet.uav[23] utilizationCountOverdrawnAfterMission 0
scalar OsgEarthNet.uav[23] utilizationCountIdleState 4
scalar OsgEarthNet.uav[23] utilizationFail 0
scalar OsgEarthNet.uav[23] simulationTime 259200
scalar OsgEarthNet.uav[24] utilizationSecMission 12564.835789009
scalar OsgEarthNet.uav[24] utilizationSecMaintenance 5871.2756362918
scalar OsgEarthNet.uav[24] utilizationSecCharge 68720
scalar OsgEarthNet.uav[24] utilizationSecIdle 172043.8875747
scalar OsgEarthNet.uav[24] utilizationEnergyMission 58933.325401306
scalar OsgEarthNet.uav[24] utilizationEnergyMaintenance 28227.532241821
scalar OsgEarthNet.uav[24] utilizationEnergyCharge 87160.845214844
scalar OsgEarthNet.uav[24] utilizationEnergyOverdrawMission 0
scalar OsgEarthNet.uav[24] utilizationEnergyOverdrawMaintenance 0
scalar OsgEarthNet.uav[24] utilizationCountMissions 19
scalar OsgEarthNet.uav[24] utilizationCountManeuversMission 218
scalar OsgEarthNet.uav[24] utilizationCountManeuversMaintenance 38
scalar OsgEarthNet.uav[24] utilizationCountChargeState 19
scalar OsgEarthNet.uav[24] utilizationCountOverdrawnAfterMission 0
scalar OsgEarthNet.uav[24] utilizationCountIdleState 12
scalar OsgEarthNet.uav[24] utilizationFail 0
scalar OsgEarthNet.uav[24] simulationTime 259200
scalar OsgEarthNet.uav[25] utilizationSecMission 18130.778416923
scalar OsgEarthNet.uav[25] utilizationSecMaintenance 5846.0747461408
scalar OsgEarthNet.uav[25] utilizationSecCharge 85244.418916075
scalar OsgEarthNet.uav[25] utilizationSecIdle 149978.72692086
scalar OsgEarthNet.uav[25] utilizationEnergyMission 83314.833114624
scalar OsgEarthNet.uav[25] utilizationEnergyMaintenance 27611.114612579
scalar OsgEarthNet.uav[25] utilizationEnergyCharge 108029.25854492
scalar OsgEarthNet.uav[25] utilizationEnergyOverdrawMission 0
scalar OsgEarthNet.uav[25] utilizationEnergyOverdrawMaintenance 0
scalar OsgEarthNet.uav[25] utilizationCountMissions 23
scalar OsgEarthNet.uav[25] utilizationCountManeuversMission 314
scalar OsgEarthNet.uav[25] utilizationCountManeuversMaintenance 46
scalar OsgEarthNet.uav[25] utilizationCountChargeState 23
scalar OsgEarthNet.uav[25] utilizationCountOverdrawnAfterMission 0
scalar OsgEarthNet.uav[25] utilizationCountIdleState 23
scalar OsgEarthNet.uav[25] utilizationFail 0
scalar OsgEarthNet.uav[25] simulationTime 259200
scalar OsgEarthNet.uav[26] utilizationSecMission 21508.202558149
scalar OsgEarthNet.uav[26] utilizationSecMaintenance 7631.9189036309
scalar OsgEarthNet.uav[26] utilizationSecCharge 104646.62521664
scalar OsgEarthNet.uav[26] utilizationSecIdle 125413.25232158
scalar OsgEarthNet.uav[26] utilizationEnergyMission 99121.534954071
scalar OsgEarthNet.uav[26] utilizationEnergyMaintenance 36295.055873871
scalar OsgEarthNet.uav[26] utilizationEnergyCharge 133343.23144531
scalar OsgEarthNet.uav[26] utilizationEnergyOverdrawMission 0
scalar OsgEarthNet.uav[26] utilizationEnergyOverdrawMaintenance 0
scalar OsgEarthNet.uav[26] utilizationCountMissions 29
scalar OsgEarthNet.uav[26] utilizationCountManeuversMission 326
scalar OsgEarthNet.uav[26] utilizationCountManeuversMaintenance 58
scalar OsgEarthNet.uav[26] utilizationCountChargeState 29
scalar OsgEarthNet.uav[26] utilizationCountOverdrawnAfterMission 0
scalar OsgEarthNet.uav[26] utilizationCountIdleState 20
scalar OsgEarthNet.uav[26] utilizationFail 0
scalar OsgEarthNet.uav[26] simulationTime 259200
scalar OsgEarthNet.uav[27] utilizationSecMission 11749.62612021
scalar OsgEarthNet.uav[27] utilizationSecMaintenance 5355.7237090484
scalar OsgEarthNet.uav[27] utilizationSecCharge 61610
scalar OsgEarthNet.uav[27] utilizationSecIdle 180484.64917074
scalar OsgEarthNet.uav[27] utilizationEnergyMission 53255.893028259
scalar OsgEarthNet.uav[27] utilizationEnergyMaintenance 25101.874168396
scalar OsgEarthNet.uav[27] utilizationEnergyCharge 78357.756835938
scalar OsgEarthNet.uav[27] utilizationEnergyOverdrawMission 0
scalar OsgEarthNet.uav[27] utilizationEnergyOverdrawMaintenance 0
scalar OsgEarthNet.uav[27] utilizationCountMissions 17
scalar OsgEarthNet.uav[27] utilizationCountManeuversMission 202
scalar OsgEarthNet.uav[27] utilizationCountManeuversMaintenance 34
scalar OsgEarthNet.uav[27] utilizationCountChargeState 17
scalar OsgEarthNet.uav[27] utilizationCountOverdrawnAfterMission 0
scalar OsgEarthNet.uav[27] utilizationCountIdleState 13
scalar OsgEarthNet.uav[27] utilizationFail 0
scalar OsgEarthNet.uav[27] simulationTime 259200
scalar OsgEarthNet.uav[28] utilizationSecMission 24970.597080204
scalar OsgEarthNet.uav[28] utilizationSecMaintenance 8763.0516989749
scalar OsgEarthNet.uav[28] utilizationSecCharge 121700
scalar OsgEarthNet.uav[28] utilizationSecIdle 103766.35022082
scalar OsgEarthNet.uav[28] utilizationEnergyMission 114823.90647282
scalar OsgEarthNet.uav[28] utilizationEnergyMaintenance 41301.760528564
scalar OsgEarthNet.uav[28] utilizationEnergyCharge 153044.58447266
scalar OsgEarthNet.uav[28] utilizationEnergyOverdrawMission 0
scalar OsgEarthNet.uav[28] utilizationEnergyOverdrawMaintenance 0
scalar OsgEarthNet.uav[28] utilizationCountMissions 32
scalar OsgEarthNet.uav[28] utilizationCountManeuversMission 440
scalar OsgEarthNet.uav[28] utilizationCountManeuversMaintenance 65
scalar OsgEarthNet.uav[28] utilizationCountChargeState 32
scalar OsgEarthNet.uav[28] utilizationCountOverdrawnAfterMission 0
scalar OsgEarthNet.uav[28] utilizationCountIdleState 33
scalar OsgEarthNet.uav[28] utilizationFail 0
scalar OsgEarthNet.uav[28] simulationTime 259200
scalar OsgEarthNet.uav[29] utilizationSecMission 20194.074917257
scalar OsgEarthNet.uav[29] utilizationSecMaintenance 7266.3806697448
scalar OsgEarthNet.uav[29] utilizationSecCharge 102510
scalar OsgEarthNet.uav[29] utilizationSecIdle 129229.543413
scalar OsgEarthNet.uav[29] utilizationEnergyMission 93941.407310486
scalar OsgEarthNet.uav[29] utilizationEnergyMaintenance 34726.682216644
scalar OsgEarthNet.uav[29] utilizationEnergyCharge 128612.58984375
scalar OsgEarthNet.uav[29] utilizationEnergyOverdrawMission 0
scalar OsgEarthNet.uav[29] utilizationEnergyOverdrawMaintenance 0
scalar OsgEarthNet.uav[29] utilizationCountMissions 28
scalar OsgEarthNet.uav[29] utilizationCountManeuversMission 325
scalar OsgEarthNet.uav[29] utilizationCountManeuversMaintenance 56
scalar OsgEarthNet.uav[29] utilizationCountChargeState 28
scalar OsgEarthNet.uav[29] utilizationCountOverdrawnAfterMission 0
scalar OsgEarthNet.uav[29] utilizationCountIdleState 22
scalar OsgEarthNet.uav[29] utilizationFail 0
scalar OsgEarthNet.uav[29] simulationTime 259200
scalar OsgEarthNet.uav[30] utilizationSecMission 23492.137243502
scalar OsgEarthNet.uav[30] utilizationSecMaintenance 7156.4081747644
scalar OsgEarthNet.uav[30] utilizationSecCharge 113009.55164962
scalar OsgEarthNet.uav[30] utilizationSecIdle 115541.90193211
scalar OsgEarthNet.uav[30] utilizationEnergyMission 109428.29203033
scalar OsgEarthNet.uav[30] utilizationEnergyMaintenance 34675.246196747
scalar OsgEarthNet.uav[30] utilizationEnergyCharge 143983.72802734
scalar OsgEarthNet.uav[30] utilizationEnergyOverdrawMission 0
scalar OsgEarthNet.uav[30] utilizationEnergyOverdrawMaintenance 0
scalar OsgEarthNet.uav[30] utilizationCountMissions 31
scalar OsgEarthNet.uav[30] utilizationCountManeuversMission 360
scalar OsgEarthNet.uav[30] utilizationCountManeuversMaintenance 62
scalar OsgEarthNet.uav[30] utilizationCountChargeState 31
scalar OsgEarthNet.uav[30] utilizationCountOverdrawnAfterMission 0
scalar OsgEarthNet.uav[30] utilizationCountIdleState 24
scalar OsgEarthNet.uav[30] utilizationFail 0
scalar OsgEarthNet.uav[30] simulationTime 259200
scalar OsgEarthNet.uav[31] utilizationSecMission 4977.0961711546
scalar OsgEarthNet.uav[31] utilizationSecMaintenance 3013.7855264785
scalar OsgEarthNet.uav[31] utilizationSecCharge 29800
scalar OsgEarthNet.uav[31] utilizationSecIdle 221409.11730237
scalar OsgEarthNet.uav[31] utilizationEnergyMission 23012.316421509
scalar OsgEarthNet.uav[31] utilizationEnergyMaintenance 14619.60969162
scalar OsgEarthNet.uav[31] utilizationEnergyCharge 37631.934082031
scalar OsgEarthNet.uav[31] utilizationEnergyOverdrawMission 0
scalar OsgEarthNet.uav[31] utilizationEnergyOverdrawMaintenance 0
scalar OsgEarthNet.uav[31] utilizationCountMissions 8
scalar OsgEarthNet.uav[31] utilizationCountManeuversMission 80
scalar OsgEarthNet.uav[31] utilizationCountManeuversMaintenance 16
scalar OsgEarthNet.uav[31] utilizationCountChargeState 8
scalar OsgEarthNet.uav[31] utilizationCountOverdrawnAfterMission 0
scalar OsgEarthNet.uav[31] utilizationCountIdleState 8
scalar OsgEarthNet.uav[31] utilizationFail 0
scalar OsgEarthNet.uav[31] simulationTime 259200
scalar OsgEarthNet.uav[32] utilizationSecMission 26649.486836915
scalar OsgEarthNet.uav[32] utilizationSecMaintenance 7777.0985490956
scalar OsgEarthNet.uav[32] utilizationSecCharge 125280
scalar OsgEarthNet.uav[32] utilizationSecIdle 99493.41361399
scalar OsgEarthNet.uav[32] utilizationEnergyMission 121353.2572937
scalar OsgEarthNet.uav[32] utilizationEnergyMaintenance 36187.44934845
scalar OsgEarthNet.uav[32] utilizationEnergyCharge 157554.37207031
scalar OsgEarthNet.uav[32] utilizationEnergyOverdrawMission 0
scalar OsgEarthNet.uav[32] utilizationEnergyOverdrawMaintenance 0
scalar OsgEarthNet.uav[32] utilizationCountMissions 33
scalar OsgEarthNet.uav[32] utilizationCountManeuversMission 448
scalar OsgEarthNet.uav[32] utilizationCountManeuversMaintenance 66
scalar OsgEarthNet.uav[32] utilizationCountChargeState 33
scalar OsgEarthNet.uav[32] utilizationCountOverdrawnAfterMission 0
scalar OsgEarthNet.uav[32] utilizationCountIdleState 34
scalar OsgEarthNet.uav[32] utilizationFail 0
scalar OsgEarthNet.uav[32] simulationTime 259200
scalar OsgEarthNet.uav[33] utilizationSecMission 27879.411070992
scalar OsgEarthNet.uav[33] utilizationSecMaintenance 8667.1713776682
scalar OsgEarthNet.uav[33] utilizationSecCharge 132994.105821
scalar OsgEarthNet.uav[33] utilizationSecIdle 89659.310730342
scalar OsgEarthNet.uav[33] utilizationEnergyMission 128215.21674347
scalar OsgEarthNet.uav[33] utilizationEnergyMaintenance 41291.544857025
scalar OsgEarthNet.uav[33] utilizationEnergyCharge 167809.37915039
scalar OsgEarthNet.uav[33] utilizationEnergyOverdrawMission 0
scalar OsgEarthNet.uav[33] utilizationEnergyOverdrawMaintenance 0
scalar OsgEarthNet.uav[33] utilizationCountMissions 37
scalar OsgEarthNet.uav[33] utilizationCountManeuversMission 425
scalar OsgEarthNet.uav[33] utilizationCountManeuversMaintenance 74
scalar OsgEarthNet.uav[33] utilizationCountChargeState 37
scalar OsgEarthNet.uav[33] utilizationCountOverdrawnAfterMission 0
scalar OsgEarthNet.uav[33] utilizationCountIdleState 32
scalar OsgEarthNet.uav[33] utilizationFail 0
scalar OsgEarthNet.uav[33] simulationTime 259200
scalar OsgEarthNet.uav[34] utilizationSecMission 7208.2182720957
scalar OsgEarthNet.uav[34] utilizationSecMaintenance 3725.9930816423
scalar OsgEarthNet.uav[34] utilizationSecCharge 40750
scalar OsgEarthNet.uav[34] utilizationSecIdle 207515.78764626
scalar OsgEarthNet.uav[34] utilizationEnergyMission 33938.755134582
scalar OsgEarthNet.uav[34] utilizationEnergyMaintenance 17962.340103149
scalar OsgEarthNet.uav[34] utilizationEnergyCharge 51901.09375
scalar OsgEarthNet.uav[34] utilizationEnergyOverdrawMission 0
scalar OsgEarthNet.uav[34] utilizationEnergyOverdrawMaintenance 0
scalar OsgEarthNet.uav[34] utilizationCountMissions 11
scalar OsgEarthNet.uav[34] utilizationCountManeuversMission 123
scalar OsgEarthNet.uav[34] utilizationCountManeuversMaintenance 22
scalar OsgEarthNet.uav[34] utilizationCountChargeState 11
scalar OsgEarthNet.uav[34] utilizationCountOverdrawnAfterMission 0
scalar OsgEarthNet.uav[34] utilizationCountIdleState 8
scalar OsgEarthNet.uav[34] utilizationFail 0
scalar OsgEarthNet.uav[34] simulationTime 259200
scalar OsgEarthNet.uav[35] utilizationSecMission 27686.788392793
scalar OsgEarthNet.uav[35] utilizationSecMaintenance 9515.6083783645
scalar OsgEarthNet.uav[35] utilizationSecCharge 132860.15196481
scalar OsgEarthNet.uav[35] utilizationSecIdle 89137.450264031
scalar OsgEarthNet.uav[35] utilizationEnergyMission 128288.70600891
scalar OsgEarthNet.uav[35] utilizationEnergyMaintenance 44074.056255341
scalar OsgEarthNet.uav[35] utilizationEnergyCharge 167005.27404785
scalar OsgEarthNet.uav[35] utilizationEnergyOverdrawMission 0
scalar OsgEarthNet.uav[35] utilizationEnergyOverdrawMaintenance 0
scalar OsgEarthNet.uav[35] utilizationCountMissions 36
scalar OsgEarthNet.uav[35] utilizationCountManeuversMission 483
scalar OsgEarthNet.uav[35] utilizationCountManeuversMaintenance 72
scalar OsgEarthNet.uav[35] utilizationCountChargeState 36
scalar OsgEarthNet.uav[35] utilizationCountOverdrawnAfterMission 0
scalar OsgEarthNet.uav[35] utilizationCountIdleState 36
scalar OsgEarthNet.uav[35] utilizationFail 0
scalar OsgEarthNet.uav[35] simulationTime 259200
scalar OsgEarthNet.uav[36] utilizationSecMission 7029.1295777805
scalar OsgEarthNet.uav[36] utilizationSecMaintenance 2849.3656448171
scalar OsgEarthNet.uav[36] utilizationSecCharge 37130
scalar OsgEarthNet.uav[36] utilizationSecIdle 212191.5037774
scalar OsgEarthNet.uav[36] utilizationEnergyMission 32371.113182068
scalar OsgEarthNet.uav[36] utilizationEnergyMaintenance 13844.42061615
scalar OsgEarthNet.uav[36] utilizationEnergyCharge 46215.532714844
scalar OsgEarthNet.uav[36] utilizationEnergyOverdrawMission 0
scalar OsgEarthNet.uav[36] utilizationEnergyOverdrawMaintenance 0
scalar OsgEarthNet.uav[36] utilizationCountMissions 10
scalar OsgEarthNet.uav[36] utilizationCountManeuversMission 107
scalar OsgEarthNet.uav[36] utilizationCountManeuversMaintenance 20
scalar OsgEarthNet.uav[36] utilizationCountChargeState 10
scalar OsgEarthNet.uav[36] utilizationCountOverdrawnAfterMission 0
scalar OsgEarthNet.uav[36] utilizationCountIdleState 11
scalar OsgEarthNet.uav[36] utilizationFail 0
scalar OsgEarthNet.uav[36] simulationTime 259200
scalar OsgEarthNet.uav[37] utilizationSecMission 7074.8293697367
scalar OsgEarthNet.uav[37] utilizationSecMaintenance 3753.7352277437
scalar OsgEarthNet.uav[37] utilizationSecCharge 40830
scalar OsgEarthNet.uav[37] utilizationSecIdle 207541.43440252
scalar OsgEarthNet.uav[37] utilizationEnergyMission 33432.676582336
scalar OsgEarthNet.uav[37] utilizationEnergyMaintenance 17821.824661255
scalar OsgEarthNet.uav[37] utilizationEnergyCharge 51254.497558594
scalar OsgEarthNet.uav[37] utilizationEnergyOverdrawMission 0
scalar OsgEarthNet.uav[37] utilizationEnergyOverdrawMaintenance 0
scalar OsgEarthNet.uav[37] utilizationCountMissions 11
scalar OsgEarthNet.uav[37] utilizationCountManeuversMission 118
scalar OsgEarthNet.uav[37] utilizationCountManeuversMaintenance 22
scalar OsgEarthNet.uav[37] utilizationCountChargeState 11
scalar OsgEarthNet.uav[37] utilizationCountOverdrawnAfterMission 0
scalar OsgEarthNet.uav[37] utilizationCountIdleState 11
scalar OsgEarthNet.uav[37] utilizationFail 0
scalar OsgEarthNet.uav[37] simulationTime 259200
scalar OsgEarthNet.uav[38] utilizationSecMission 25567.789655701
scalar OsgEarthNet.uav[38] utilizationSecMaintenance 7414.0807433843
scalar OsgEarthNet.uav[38] utilizationSecCharge 121303.40489568
scalar OsgEarthNet.uav[38] utilizationSecIdle 104914.72370524
scalar OsgEarthNet.uav[38] utilizationEnergyMission 117937.42768097
scalar OsgEarthNet.uav[38] utilizationEnergyMaintenance 35277.87543869
scalar OsgEarthNet.uav[38] utilizationEnergyCharge 153608.3125
scalar OsgEarthNet.uav[38] utilizationEnergyOverdrawMission 0
scalar OsgEarthNet.uav[38] utilizationEnergyOverdrawMaintenance 0
scalar OsgEarthNet.uav[38] utilizationCountMissions 32
scalar OsgEarthNet.uav[38] utilizationCountManeuversMission 430
scalar OsgEarthNet.uav[38] utilizationCountManeuversMaintenance 64
scalar OsgEarthNet.uav[38] utilizationCountChargeState 32
scalar OsgEarthNet.uav[38] utilizationCountOverdrawnAfterMission 0
scalar OsgEarthNet.uav[38] utilizationCountIdleState 32
scalar OsgEarthNet.uav[38] utilizationFail 0
scalar OsgEarthNet.uav[38] simulationTime 259200
scalar OsgEarthNet.uav[39] utilizationSecMission 9906.7240487899
scalar OsgEarthNet.uav[39] utilizationSecMaintenance 4791.9882614505
scalar OsgEarthNet.uav[39] utilizationSecCharge 55110
scalar OsgEarthNet.uav[39] utilizationSecIdle 189391.28668976
scalar OsgEarthNet.uav[39] utilizationEnergyMission 46412.519767761
scalar OsgEarthNet.uav[39] utilizationEnergyMaintenance 23294.696258545
scalar OsgEarthNet.uav[39] utilizationEnergyCharge 69707.237304688
scalar OsgEarthNet.uav[39] utilizationEnergyOverdrawMission 0
scalar OsgEarthNet.uav[39] utilizationEnergyOverdrawMaintenance 0
scalar OsgEarthNet.uav[39] utilizationCountMissions 15
scalar OsgEarthNet.uav[39] utilizationCountManeuversMission 167
scalar OsgEarthNet.uav[39] utilizationCountManeuversMaintenance 30
scalar OsgEarthNet.uav[39] utilizationCountChargeState 15
scalar OsgEarthNet.uav[39] utilizationCountOverdrawnAfterMission 0
scalar OsgEarthNet.uav[39] utilizationCountIdleState 11
scalar OsgEarthNet.uav[39] utilizationFail 0
scalar OsgEarthNet.uav[39] simulationTime 259200
scalar OsgEarthNet.uav[40] utilizationSecMission 4568.3716938552
scalar OsgEarthNet.uav[40] utilizationSecMaintenance 2439.3833155437
scalar OsgEarthNet.uav[40] utilizationSecCharge 26590
scalar OsgEarthNet.uav[40] utilizationSecIdle 225602.2439906
scalar OsgEarthNet.uav[40] utilizationEnergyMission 21451.834213257
scalar OsgEarthNet.uav[40] utilizationEnergyMaintenance 12082.146076202
scalar OsgEarthNet.uav[40] utilizationEnergyCharge 33533.9765625
scalar OsgEarthNet.uav[40] utilizationEnergyOverdrawMission 0
scalar OsgEarthNet.uav[40] utilizationEnergyOverdrawMaintenance 0
scalar OsgEarthNet.uav[40] utilizationCountMissions 7
scalar OsgEarthNet.uav[40] utilizationCountManeuversMission 70
scalar OsgEarthNet.uav[40] utilizationCountManeuversMaintenance 14
scalar OsgEarthNet.uav[40] utilizationCountChargeState 7
scalar OsgEarthNet.uav[40] utilizationCountOverdrawnAfterMission 0
scalar OsgEarthNet.uav[40] utilizationCountIdleState 8
scalar OsgEarthNet.uav[40] utilizationFail 0
scalar OsgEarthNet.uav[40] simulationTime 259200
scalar OsgEarthNet.uav[41] utilizationSecMission 7432.1253924202
scalar OsgEarthNet.uav[41] utilizationSecMaintenance 3270.4150689613
scalar OsgEarthNet.uav[41] utilizationSecCharge 40460
scalar OsgEarthNet.uav[41] utilizationSecIdle 208037.45853862
scalar OsgEarthNet.uav[41] utilizationEnergyMission 34850.903411865
scalar OsgEarthNet.uav[41] utilizationEnergyMaintenance 15589.056472778
scalar OsgEarthNet.uav[41] utilizationEnergyCharge 50439.956054688
scalar OsgEarthNet.uav[41] utilizationEnergyOverdrawMission 0
scalar OsgEarthNet.uav[41] utilizationEnergyOverdrawMaintenance 0
scalar OsgEarthNet.uav[41] utilizationCountMissions 11
scalar OsgEarthNet.uav[41] utilizationCountManeuversMission 127
scalar OsgEarthNet.uav[41] utilizationCountManeuversMaintenance 22
scalar OsgEarthNet.uav[41] utilizationCountChargeState 11
scalar OsgEarthNet.uav[41] utilizationCountOverdrawnAfterMission 0
scalar OsgEarthNet.uav[41] utilizationCountIdleState 10
scalar OsgEarthNet.uav[41] utilizationFail 0
scalar OsgEarthNet.uav[41] simulationTime 259200
scalar OsgEarthNet.uav[42] utilizationSecMission 22889.725221478
scalar OsgEarthNet.uav[42] utilizationSecMaintenance 8191.3323880244
scalar OsgEarthNet.uav[42] utilizationSecCharge 112564.23063858
scalar OsgEarthNet.uav[42] utilizationSecIdle 115554.71075191
scalar OsgEarthNet.uav[42] utilizationEnergyMission 107273.74856567
scalar OsgEarthNet.uav[42] utilizationEnergyMaintenance 37047.543144226
scalar OsgEarthNet.uav[42] utilizationEnergyCharge 142592.83642578
scalar OsgEarthNet.uav[42] utilizationEnergyOverdrawMission 0
scalar OsgEarthNet.uav[42] utilizationEnergyOverdrawMaintenance 0
scalar OsgEarthNet.uav[42] utilizationCountMissions 30
scalar OsgEarthNet.uav[42] utilizationCountManeuversMission 394
scalar OsgEarthNet.uav[42] utilizationCountManeuversMaintenance 60
scalar OsgEarthNet.uav[42] utilizationCountChargeState 30
scalar OsgEarthNet.uav[42] utilizationCountOverdrawnAfterMission 0
scalar OsgEarthNet.uav[42] utilizationCountIdleState 30
scalar OsgEarthNet.uav[42] utilizationFail 0
scalar OsgEarthNet.uav[42] simulationTime 259200
scalar OsgEarthNet.uav[43] utilizationSecMission 6628.9501905008
scalar OsgEarthNet.uav[43] utilizationSecMaintenance 3213.3626652137
scalar OsgEarthNet.uav[43] utilizationSecCharge 36063.622534219
scalar OsgEarthNet.uav[43] utilizationSecIdle 213294.06361007
scalar OsgEarthNet.uav[43] utilizationEnergyMission 30702.553611755
scalar OsgEarthNet.uav[43] utilizationEnergyMaintenance 15683.531040192
scalar OsgEarthNet.uav[43] utilizationEnergyCharge 46225.432617188
scalar OsgEarthNet.uav[43] utilizationEnergyOverdrawMission 0
scalar OsgEarthNet.uav[43] utilizationEnergyOverdrawMaintenance 0
scalar OsgEarthNet.uav[43] utilizationCountMissions 10
scalar OsgEarthNet.uav[43] utilizationCountManeuversMission 108
scalar OsgEarthNet.uav[43] utilizationCountManeuversMaintenance 20
scalar OsgEarthNet.uav[43] utilizationCountChargeState 10
scalar OsgEarthNet.uav[43] utilizationCountOverdrawnAfterMission 0
scalar OsgEarthNet.uav[43] utilizationCountIdleState 8
scalar OsgEarthNet.uav[43] utilizationFail 0
scalar OsgEarthNet.uav[43] simulationTime 259200
scalar OsgEarthNet.uav[44] utilizationSecMission 1311.10660367
scalar OsgEarthNet.uav[44] utilizationSecMaintenance 669.39310336273
scalar OsgEarthNet.uav[44] utilizationSecCharge 7370
scalar OsgEarthNet.uav[44] utilizationSecIdle 249849.49929297
scalar OsgEarthNet.uav[44] utilizationEnergyMission 6101.013168335
scalar OsgEarthNet.uav[44] utilizationEnergyMaintenance 3096.3514328003
scalar OsgEarthNet.uav[44] utilizationEnergyCharge 9197.359375
scalar OsgEarthNet.uav[44] utilizationEnergyOverdrawMission 0
scalar OsgEarthNet.uav[44] utilizationEnergyOverdrawMaintenance 0
scalar OsgEarthNet.uav[44] utilizationCountMissions 2
scalar OsgEarthNet.uav[44] utilizationCountManeuversMission 20
scalar OsgEarthNet.uav[44] utilizationCountManeuversMaintenance 4
scalar OsgEarthNet.uav[44] utilizationCountChargeState 2
scalar OsgEarthNet.uav[44] utilizationCountOverdrawnAfterMission 0
scalar OsgEarthNet.uav[44] utilizationCountIdleState 3
scalar OsgEarthNet.uav[44] utilizationFail 0
scalar OsgEarthNet.uav[44] simulationTime 259200
scalar OsgEarthNet.uav[45] utilizationSecMission 3190.0950149773
scalar OsgEarthNet.uav[45] utilizationSecMaintenance 1810.1900286573
scalar OsgEarthNet.uav[45] utilizationSecCharge 18590
scalar OsgEarthNet.uav[45] utilizationSecIdle 235609.71395637
scalar OsgEarthNet.uav[45] utilizationEnergyMission 14983.475830078
scalar OsgEarthNet.uav[45] utilizationEnergyMaintenance 8369.0427513123
scalar OsgEarthNet.uav[45] utilizationEnergyCharge 23284.575683594
scalar OsgEarthNet.uav[45] utilizationEnergyOverdrawMission 0
scalar OsgEarthNet.uav[45] utilizationEnergyOverdrawMaintenance 0
scalar OsgEarthNet.uav[45] utilizationCountMissions 5
scalar OsgEarthNet.uav[45] utilizationCountManeuversMission 49
scalar OsgEarthNet.uav[45] utilizationCountManeuversMaintenance 10
scalar OsgEarthNet.uav[45] utilizationCountChargeState 5
scalar OsgEarthNet.uav[45] utilizationCountOverdrawnAfterMission 0
scalar OsgEarthNet.uav[45] utilizationCountIdleState 5
scalar OsgEarthNet.uav[45] utilizationFail 0
scalar OsgEarthNet.uav[45] simulationTime 259200
scalar OsgEarthNet.uav[46] utilizationSecMission 8644.055474196
scalar OsgEarthNet.uav[46] utilizationSecMaintenance 4217.5033631244
scalar OsgEarthNet.uav[46] utilizationSecCharge 47650
scalar OsgEarthNet.uav[46] utilizationSecIdle 198688.44016268
scalar OsgEarthNet.uav[46] utilizationEnergyMission 40410.5623703
scalar OsgEarthNet.uav[46] utilizationEnergyMaintenance 19745.240394592
scalar OsgEarthNet.uav[46] utilizationEnergyCharge 60078.640625
scalar OsgEarthNet.uav[46] utilizationEnergyOverdrawMission 0
scalar OsgEarthNet.uav[46] utilizationEnergyOverdrawMaintenance 0
scalar OsgEarthNet.uav[46] utilizationCountMissions 13
scalar OsgEarthNet.uav[46] utilizationCountManeuversMission 140
scalar OsgEarthNet.uav[46] utilizationCountManeuversMaintenance 26
scalar OsgEarthNet.uav[46] utilizationCountChargeState 13
scalar OsgEarthNet.uav[46] utilizationCountOverdrawnAfterMission 0
scalar OsgEarthNet.uav[46] utilizationCountIdleState 10
scalar OsgEarthNet.uav[46] utilizationFail 0
scalar OsgEarthNet.uav[46] simulationTime 259200
scalar OsgEarthNet.uav[47] utilizationSecMission 2928.0709281315
scalar OsgEarthNet.uav[47] utilizationSecMaintenance 1180.0777490449
scalar OsgEarthNet.uav[47] utilizationSecCharge 15380
scalar OsgEarthNet.uav[47] utilizationSecIdle 239711.85032282
scalar OsgEarthNet.uav[47] utilizationEnergyMission 13543.962249756
scalar OsgEarthNet.uav[47] utilizationEnergyMaintenance 5871.2804527283
scalar OsgEarthNet.uav[47] utilizationEnergyCharge 19415.233398438
scalar OsgEarthNet.uav[47] utilizationEnergyOverdrawMission 0
scalar OsgEarthNet.uav[47] utilizationEnergyOverdrawMaintenance 0
scalar OsgEarthNet.uav[47] utilizationCountMissions 4
scalar OsgEarthNet.uav[47] utilizationCountManeuversMission 47
scalar OsgEarthNet.uav[47] utilizationCountManeuversMaintenance 8
scalar OsgEarthNet.uav[47] utilizationCountChargeState 4
scalar OsgEarthNet.uav[47] utilizationCountOverdrawnAfterMission 0
scalar OsgEarthNet.uav[47] utilizationCountIdleState 5
scalar OsgEarthNet.uav[47] utilizationFail 0
scalar OsgEarthNet.uav[47] simulationTime 259200
scalar OsgEarthNet.uav[48] utilizationSecMission 23618.782658011
scalar OsgEarthNet.uav[48] utilizationSecMaintenance 8484.7794999698
scalar OsgEarthNet.uav[48] utilizationSecCharge 117820
scalar OsgEarthNet.uav[48] utilizationSecIdle 109276.43684202
scalar OsgEarthNet.uav[48] utilizationEnergyMission 109182.04167557
scalar OsgEarthNet.uav[48] utilizationEnergyMaintenance 38683.834228516
scalar OsgEarthNet.uav[48] utilizationEnergyCharge 148261.98974609
scalar OsgEarthNet.uav[48] utilizationEnergyOverdrawMission 0
scalar OsgEarthNet.uav[48] utilizationEnergyOverdrawMaintenance 0
scalar OsgEarthNet.uav[48] utilizationCountMissions 31
scalar OsgEarthNet.uav[48] utilizationCountManeuversMission 419
scalar OsgEarthNet.uav[48] utilizationCountManeuversMaintenance 62
scalar OsgEarthNet.uav[48] utilizationCountChargeState 31
scalar OsgEarthNet.uav[48] utilizationCountOverdrawnAfterMission 0
scalar OsgEarthNet.uav[48] utilizationCountIdleState 32
scalar OsgEarthNet.uav[48] utilizationFail 0
scalar OsgEarthNet.uav[48] simulationTime 259200
scalar OsgEarthNet.uav[49] utilizationSecMission 23960.795568823
scalar OsgEarthNet.uav[49] utilizationSecMaintenance 7499.5228832482
scalar OsgEarthNet.uav[49] utilizationSecCharge 113620
scalar OsgEarthNet.uav[49] utilizationSecIdle 114119.68054793
scalar OsgEarthNet.uav[49] utilizationEnergyMission 110684.51027176
scalar OsgEarthNet.uav[49] utilizationEnergyMaintenance 36962.774780273
scalar OsgEarthNet.uav[49] utilizationEnergyCharge 143615.16503906
scalar OsgEarthNet.uav[49] utilizationEnergyOverdrawMission 0
scalar OsgEarthNet.uav[49] utilizationEnergyOverdrawMaintenance 0
scalar OsgEarthNet.uav[49] utilizationCountMissions 31
scalar OsgEarthNet.uav[49] utilizationCountManeuversMission 370
scalar OsgEarthNet.uav[49] utilizationCountManeuversMaintenance 63
scalar OsgEarthNet.uav[49] utilizationCountChargeState 31
scalar OsgEarthNet.uav[49] utilizationCountOverdrawnAfterMission 0
scalar OsgEarthNet.uav[49] utilizationCountIdleState 25
scalar OsgEarthNet.uav[49] utilizationFail 0
scalar OsgEarthNet.uav[49] simulationTime 259200
scalar OsgEarthNet.uav[50] utilizationSecMission 14442.379339416
scalar OsgEarthNet.uav[50] utilizationSecMaintenance 5543.3680935863
scalar OsgEarthNet.uav[50] utilizationSecCharge 73119.95004152
scalar OsgEarthNet.uav[50] utilizationSecIdle 166094.30152548
scalar OsgEarthNet.uav[50] utilizationEnergyMission 67478.364997864
scalar OsgEarthNet.uav[50] utilizationEnergyMaintenance 26972.915737152
scalar OsgEarthNet.uav[50] utilizationEnergyCharge 92543.952880859
scalar OsgEarthNet.uav[50] utilizationEnergyOverdrawMission 0
scalar OsgEarthNet.uav[50] utilizationEnergyOverdrawMaintenance 0
scalar OsgEarthNet.uav[50] utilizationCountMissions 20
scalar OsgEarthNet.uav[50] utilizationCountManeuversMission 226
scalar OsgEarthNet.uav[50] utilizationCountManeuversMaintenance 40
scalar OsgEarthNet.uav[50] utilizationCountChargeState 20
scalar OsgEarthNet.uav[50] utilizationCountOverdrawnAfterMission 0
scalar OsgEarthNet.uav[50] utilizationCountIdleState 20
scalar OsgEarthNet.uav[50] utilizationFail 0
scalar OsgEarthNet.uav[50] simulationTime 259200
scalar OsgEarthNet.uav[51] utilizationSecMission 3631.5919994741
scalar OsgEarthNet.uav[51] utilizationSecMaintenance 2345.7558471641
scalar OsgEarthNet.uav[51] utilizationSecCharge 22420
scalar OsgEarthNet.uav[51] utilizationSecIdle 230802.65115336
scalar OsgEarthNet.uav[51] utilizationEnergyMission 16603.29599762
scalar OsgEarthNet.uav[51] utilizationEnergyMaintenance 11401.719013214
scalar OsgEarthNet.uav[51] utilizationEnergyCharge 28005.021972656
scalar OsgEarthNet.uav[51] utilizationEnergyOverdrawMission 0
scalar OsgEarthNet.uav[51] utilizationEnergyOverdrawMaintenance 0
scalar OsgEarthNet.uav[51] utilizationCountMissions 6
scalar OsgEarthNet.uav[51] utilizationCountManeuversMission 58
scalar OsgEarthNet.uav[51] utilizationCountManeuversMaintenance 12
scalar OsgEarthNet.uav[51] utilizationCountChargeState 6
scalar OsgEarthNet.uav[51] utilizationCountOverdrawnAfterMission 0
scalar OsgEarthNet.uav[51] utilizationCountIdleState 7
scalar OsgEarthNet.uav[51] utilizationFail 0
scalar OsgEarthNet.uav[51] simulationTime 259200
scalar OsgEarthNet.uav[52] utilizationSecMission 25284.833680521
scalar OsgEarthNet.uav[52] utilizationSecMaintenance 8468.5738870968
scalar OsgEarthNet.uav[52] utilizationSecCharge 124160
scalar OsgEarthNet.uav[52] utilizationSecIdle 101286.59143238
scalar OsgEarthNet.uav[52] utilizationEnergyMission 116835.74762726
scalar OsgEarthNet.uav[52] utilizationEnergyMaintenance 39053.564064026
scalar OsgEarthNet.uav[52] utilizationEnergyCharge 155690.18212891
scalar OsgEarthNet.uav[52] utilizationEnergyOverdrawMission 0
scalar OsgEarthNet.uav[52] utilizationEnergyOverdrawMaintenance 0
scalar OsgEarthNet.uav[52] utilizationCountMissions 33
scalar OsgEarthNet.uav[52] utilizationCountManeuversMission 439
scalar OsgEarthNet.uav[52] utilizationCountManeuversMaintenance 66
scalar OsgEarthNet.uav[52] utilizationCountChargeState 33
scalar OsgEarthNet.uav[52] utilizationCountOverdrawnAfterMission 0
scalar OsgEarthNet.uav[52] utilizationCountIdleState 34
scalar OsgEarthNet.uav[52] utilizationFail 0
scalar OsgEarthNet.uav[52] simulationTime 259200
scalar OsgEarthNet.uav[53] utilizationSecMission 15669.131119114
scalar OsgEarthNet.uav[53] utilizationSecMaintenance 6265.5230379745
scalar OsgEarthNet.uav[53] utilizationSecCharge 82490
scalar OsgEarthNet.uav[53] utilizationSecIdle 154775.34484291
scalar OsgEarthNet.uav[53] utilizationEnergyMission 73035.803535461
scalar OsgEarthNet.uav[53] utilizationEnergyMaintenance 30382.86832428
scalar OsgEarthNet.uav[53] utilizationEnergyCharge 103418.6796875
scalar OsgEarthNet.uav[53] utilizationEnergyOverdrawMission 0
scalar OsgEarthNet.uav[53] utilizationEnergyOverdrawMaintenance 0
scalar OsgEarthNet.uav[53] utilizationCountMissions 22
scalar OsgEarthNet.uav[53] utilizationCountManeuversMission 244
scalar OsgEarthNet.uav[53] utilizationCountManeuversMaintenance 44
scalar OsgEarthNet.uav[53] utilizationCountChargeState 22
scalar OsgEarthNet.uav[53] utilizationCountOverdrawnAfterMission 0
scalar OsgEarthNet.uav[53] utilizationCountIdleState 23
scalar OsgEarthNet.uav[53] utilizationFail 0
scalar OsgEarthNet.uav[53] simulationTime 259200
scalar OsgEarthNet.uav[54] utilizationSecMission 4168.5006739751
scalar OsgEarthNet.uav[54] utilizationSecMaintenance 2847.8228064506
scalar OsgEarthNet.uav[54] utilizationSecCharge 26360
scalar OsgEarthNet.uav[54] utilizationSecIdle 225823.67551957
scalar OsgEarthNet.uav[54] utilizationEnergyMission 19194.503601074
scalar OsgEarthNet.uav[54] utilizationEnergyMaintenance 13859.800312042
scalar OsgEarthNet.uav[54] utilizationEnergyCharge 33054.298339844
scalar OsgEarthNet.uav[54] utilizationEnergyOverdrawMission 0
scalar OsgEarthNet.uav[54] utilizationEnergyOverdrawMaintenance 0
scalar OsgEarthNet.uav[54] utilizationCountMissions 7
scalar OsgEarthNet.uav[54] utilizationCountManeuversMission 70
scalar OsgEarthNet.uav[54] utilizationCountManeuversMaintenance 14
scalar OsgEarthNet.uav[54] utilizationCountChargeState 7
scalar OsgEarthNet.uav[54] utilizationCountOverdrawnAfterMission 0
scalar OsgEarthNet.uav[54] utilizationCountIdleState 8
scalar OsgEarthNet.uav[54] utilizationFail 0
scalar OsgEarthNet.uav[54] simulationTime 259200
scalar OsgEarthNet.uav[55] utilizationSecMission 26855.869238397
scalar OsgEarthNet.uav[55] utilizationSecMaintenance 9281.5389272197
scalar OsgEarthNet.uav[55] utilizationSecCharge 133420
scalar OsgEarthNet.uav[55] utilizationSecIdle 89642.590834383
scalar OsgEarthNet.uav[55] utilizationEnergyMission 124215.53044891
scalar OsgEarthNet.uav[55] utilizationEnergyMaintenance 44399.743606567
scalar OsgEarthNet.uav[55] utilizationEnergyCharge 168120.68701172
scalar OsgEarthNet.uav[55] utilizationEnergyOverdrawMission 0
scalar OsgEarthNet.uav[55] utilizationEnergyOverdrawMaintenance 0
scalar OsgEarthNet.uav[55] utilizationCountMissions 36
scalar OsgEarthNet.uav[55] utilizationCountManeuversMission 407
scalar OsgEarthNet.uav[55] utilizationCountManeuversMaintenance 72
scalar OsgEarthNet.uav[55] utilizationCountChargeState 36
scalar OsgEarthNet.uav[55] utilizationCountOverdrawnAfterMission 0
scalar OsgEarthNet.uav[55] utilizationCountIdleState 32
scalar OsgEarthNet.uav[55] utilizationFail 0
scalar OsgEarthNet.uav[55] simulationTime 259200
scalar OsgEarthNet.uav[56] utilizationSecMission 15406.764732492
scalar OsgEarthNet.uav[56] utilizationSecMaintenance 5746.8538278564
scalar OsgEarthNet.uav[56] utilizationSecCharge 78070
scalar OsgEarthNet.uav[56] utilizationSecIdle 159976.38043965
scalar OsgEarthNet.uav[56] utilizationEnergyMission 71069.545360565
scalar OsgEarthNet.uav[56] utilizationEnergyMaintenance 27315.782844543
scalar OsgEarthNet.uav[56] utilizationEnergyCharge 98236.905761719
scalar OsgEarthNet.uav[56] utilizationEnergyOverdrawMission 0
scalar OsgEarthNet.uav[56] utilizationEnergyOverdrawMaintenance 0
scalar OsgEarthNet.uav[56] utilizationCountMissions 21
scalar OsgEarthNet.uav[56] utilizationCountManeuversMission 243
scalar OsgEarthNet.uav[56] utilizationCountManeuversMaintenance 42
scalar OsgEarthNet.uav[56] utilizationCountChargeState 21
scalar OsgEarthNet.uav[56] utilizationCountOverdrawnAfterMission 0
scalar OsgEarthNet.uav[56] utilizationCountIdleState 21
scalar OsgEarthNet.uav[56] utilizationFail 0
scalar OsgEarthNet.uav[56] simulationTime 259200
scalar OsgEarthNet.uav[57] utilizationSecMission 18447.856652752
scalar OsgEarthNet.uav[57] utilizationSecMaintenance 7975.5554535651
scalar OsgEarthNet.uav[57] utilizationSecCharge 97740
scalar OsgEarthNet.uav[57] utilizationSecIdle 135036.58689368
scalar OsgEarthNet.uav[57] utilizationEnergyMission 84148.734306335
scalar OsgEarthNet.uav[57] utilizationEnergyMaintenance 38400.584781647
scalar OsgEarthNet.uav[57] utilizationEnergyCharge 122522.23779297
scalar OsgEarthNet.uav[57] utilizationEnergyOverdrawMission 0
scalar OsgEarthNet.uav[57] utilizationEnergyOverdrawMaintenance 0
scalar OsgEarthNet.uav[57] utilizationCountMissions 26
scalar OsgEarthNet.uav[57] utilizationCountManeuversMission 293
scalar OsgEarthNet.uav[57] utilizationCountManeuversMaintenance 52
scalar OsgEarthNet.uav[57] utilizationCountChargeState 26
scalar OsgEarthNet.uav[57] utilizationCountOverdrawnAfterMission 0
scalar OsgEarthNet.uav[57] utilizationCountIdleState 27
scalar OsgEarthNet.uav[57] utilizationFail 0
scalar OsgEarthNet.uav[57] simulationTime 259200
scalar OsgEarthNet.uav[58] utilizationSecMission 28747.763141021
scalar OsgEarthNet.uav[58] utilizationSecMaintenance 10130.0151541
scalar OsgEarthNet.uav[58] utilizationSecCharge 141900.76774616
scalar OsgEarthNet.uav[58] utilizationSecIdle 78421.452958717
scalar OsgEarthNet.uav[58] utilizationEnergyMission 132327.60913849
scalar OsgEarthNet.uav[58] utilizationEnergyMaintenance 46008.221622467
scalar OsgEarthNet.uav[58] utilizationEnergyCharge 178933.92333984
scalar OsgEarthNet.uav[58] utilizationEnergyOverdrawMission 0
scalar OsgEarthNet.uav[58] utilizationEnergyOverdrawMaintenance 0
scalar OsgEarthNet.uav[58] utilizationCountMissions 38
scalar OsgEarthNet.uav[58] utilizationCountManeuversMission 504
scalar OsgEarthNet.uav[58] utilizationCountManeuversMaintenance 76
scalar OsgEarthNet.uav[58] utilizationCountChargeState 38
scalar OsgEarthNet.uav[58] utilizationCountOverdrawnAfterMission 0
scalar OsgEarthNet.uav[58] utilizationCountIdleState 38
scalar OsgEarthNet.uav[58] utilizationFail 0
scalar OsgEarthNet.uav[58] simulationTime 259200
scalar OsgEarthNet.uav[59] utilizationSecMission 12948.180540053
scalar OsgEarthNet.uav[59] utilizationSecMaintenance 4897.4940478598
scalar OsgEarthNet.uav[59] utilizationSecCharge 66340
scalar OsgEarthNet.uav[59] utilizationSecIdle 175014.32441209
scalar OsgEarthNet.uav[59] utilizationEnergyMission 59623.543258667
scalar OsgEarthNet.uav[59] utilizationEnergyMaintenance 23277.232505798
scalar OsgEarthNet.uav[59] utilizationEnergyCharge 82687.27734375
scalar OsgEarthNet.uav[59] utilizationEnergyOverdrawMission 0
scalar OsgEarthNet.uav[59] utilizationEnergyOverdrawMaintenance 0
scalar OsgEarthNet.uav[59] utilizationCountMissions 18
scalar OsgEarthNet.uav[59] utilizationCountManeuversMission 200
scalar OsgEarthNet.uav[59] utilizationCountManeuversMaintenance 35
scalar OsgEarthNet.uav[59] utilizationCountChargeState 18
scalar OsgEarthNet.uav[59] utilizationCountOverdrawnAfterMission 0
scalar OsgEarthNet.uav[59] utilizationCountIdleState 19
scalar OsgEarthNet.uav[59] utilizationFail 0
scalar OsgEarthNet.uav[59] simulationTime 259200
scalar OsgEarthNet.uav[60] utilizationSecMission 6682.5298382409
scalar OsgEarthNet.uav[60] utilizationSecMaintenance 3223.5128651859
scalar OsgEarthNet.uav[60] utilizationSecCharge 37220
scalar OsgEarthNet.uav[60] utilizationSecIdle 212073.95629657
scalar OsgEarthNet.uav[60] utilizationEnergyMission 31084.280273438
scalar OsgEarthNet.uav[60] utilizationEnergyMaintenance 15458.226993561
scalar OsgEarthNet.uav[60] utilizationEnergyCharge 46542.073730469
scalar OsgEarthNet.uav[60] utilizationEnergyOverdrawMission 0
scalar OsgEarthNet.uav[60] utilizationEnergyOverdrawMaintenance 0
scalar OsgEarthNet.uav[60] utilizationCountMissions 10
scalar OsgEarthNet.uav[60] utilizationCountManeuversMission 106
scalar OsgEarthNet.uav[60] utilizationCountManeuversMaintenance 20
scalar OsgEarthNet.uav[60] utilizationCountChargeState 10
scalar OsgEarthNet.uav[60] utilizationCountOverdrawnAfterMission 0
scalar OsgEarthNet.uav[60] utilizationCountIdleState 11
scalar OsgEarthNet.uav[60] utilizationFail 0
scalar OsgEarthNet.uav[60] simulationTime 259200
scalar OsgEarthNet.uav[61] utilizationSecMission 3010.4362656495
scalar OsgEarthNet.uav[61] utilizationSecMaintenance 2009.2579954524
scalar OsgEarthNet.uav[61] utilizationSecCharge 19010
scalar OsgEarthNet.uav[61] utilizationSecIdle 235170.3047389
scalar OsgEarthNet.uav[61] utilizationEnergyMission 14403.189437866
scalar OsgEarthNet.uav[61] utilizationEnergyMaintenance 9561.5567703247
scalar OsgEarthNet.uav[61] utilizationEnergyCharge 23964.740722656
scalar OsgEarthNet.uav[61] utilizationEnergyOverdrawMission 0
scalar OsgEarthNet.uav[61] utilizationEnergyOverdrawMaintenance 0
scalar OsgEarthNet.uav[61] utilizationCountMissions 5
scalar OsgEarthNet.uav[61] utilizationCountManeuversMission 50
scalar OsgEarthNet.uav[61] utilizationCountManeuversMaintenance 10
scalar OsgEarthNet.uav[61] utilizationCountChargeState 5
scalar OsgEarthNet.uav[61] utilizationCountOverdrawnAfterMission 0
scalar OsgEarthNet.uav[61] utilizationCountIdleState 6
scalar OsgEarthNet.uav[61] utilizationFail 0
scalar OsgEarthNet.uav[61] simulationTime 259200
scalar OsgEarthNet.uav[62] utilizationSecMission 32996.789314516
scalar OsgEarthNet.uav[62] utilizationSecMaintenance 10310.676481882
scalar OsgEarthNet.uav[62] utilizationSecCharge 157880
scalar OsgEarthNet.uav[62] utilizationSecIdle 58012.533203602
scalar OsgEarthNet.uav[62] utilizationEnergyMission 153004.78888248
scalar OsgEarthNet.uav[62] utilizationEnergyMaintenance 49825.382694244
scalar OsgEarthNet.uav[62] utilizationEnergyCharge 198919.86230469
scalar OsgEarthNet.uav[62] utilizationEnergyOverdrawMission 0
scalar OsgEarthNet.uav[62] utilizationEnergyOverdrawMaintenance 0
scalar OsgEarthNet.uav[62] utilizationCountMissions 43
scalar OsgEarthNet.uav[62] utilizationCountManeuversMission 496
scalar OsgEarthNet.uav[62] utilizationCountManeuversMaintenance 87
scalar OsgEarthNet.uav[62] utilizationCountChargeState 43
scalar OsgEarthNet.uav[62] utilizationCountOverdrawnAfterMission 0
scalar OsgEarthNet.uav[62] utilizationCountIdleState 35
scalar OsgEarthNet.uav[62] utilizationFail 0
scalar OsgEarthNet.uav[62] simulationTime 259200
scalar OsgEarthNet.uav[63] utilizationSecMission 6989.9255175304
scalar OsgEarthNet.uav[63] utilizationSecMaintenance 3401.758065254
scalar OsgEarthNet.uav[63] utilizationSecCharge 37430
scalar OsgEarthNet.uav[63] utilizationSecIdle 211378.31541722
scalar OsgEarthNet.uav[63] utilizationEnergyMission 32162.970520019
scalar OsgEarthNet.uav[63] utilizationEnergyMaintenance 16074.172214508
scalar OsgEarthNet.uav[63] utilizationEnergyCharge 48237.142089844
scalar OsgEarthNet.uav[63] utilizationEnergyOverdrawMission 0
scalar OsgEarthNet.uav[63] utilizationEnergyOverdrawMaintenance 0
scalar OsgEarthNet.uav[63] utilizationCountMissions 10
scalar OsgEarthNet.uav[63] utilizationCountManeuversMission 115
scalar OsgEarthNet.uav[63] utilizationCountManeuversMaintenance 20
scalar OsgEarthNet.uav[63] utilizationCountChargeState 10
scalar OsgEarthNet.uav[63] utilizationCountOverdrawnAfterMission 0
scalar OsgEarthNet.uav[63] utilizationCountIdleState 9
scalar OsgEarthNet.uav[63] utilizationFail 0
scalar OsgEarthNet.uav[63] simulationTime 259200
scalar OsgEarthNet.uav[64] utilizationSecMission 4755.1782572221
scalar OsgEarthNet.uav[64] utilizationSecMaintenance 2385.6577799771
scalar OsgEarthNet.uav[64] utilizationSecCharge 26740
scalar OsgEarthNet.uav[64] utilizationSecIdle 225319.1629628
scalar OsgEarthNet.uav[64] utilizationEnergyMission 21771.161911011
scalar OsgEarthNet.uav[64] utilizationEnergyMaintenance 11968.56911087
scalar OsgEarthNet.uav[64] utilizationEnergyCharge 33739.728515625
scalar OsgEarthNet.uav[64] utilizationEnergyOverdrawMission 0
scalar OsgEarthNet.uav[64] utilizationEnergyOverdrawMaintenance 0
scalar OsgEarthNet.uav[64] utilizationCountMissions 7
scalar OsgEarthNet.uav[64] utilizationCountManeuversMission 78
scalar OsgEarthNet.uav[64] utilizationCountManeuversMaintenance 14
scalar OsgEarthNet.uav[64] utilizationCountChargeState 7
scalar OsgEarthNet.uav[64] utilizationCountOverdrawnAfterMission 0
scalar OsgEarthNet.uav[64] utilizationCountIdleState 8
scalar OsgEarthNet.uav[64] utilizationFail 0
scalar OsgEarthNet.uav[64] simulationTime 259200
scalar OsgEarthNet.uav[65] utilizationSecMission 30449.312729464
scalar OsgEarthNet.uav[65] utilizationSecMaintenance 9959.1935781192
scalar OsgEarthNet.uav[65] utilizationSecCharge 151170
[...]
scalar OsgEarthNet.uav[82] utilizationSecCharge 147820
scalar OsgEarthNet.uav[82] utilizationSecIdle 70882
scalar OsgEarthNet.uav[82] utilizationEnergyMission 141904.70376715
scalar OsgEarthNet.uav[82] utilizationEnergyMaintenance 45682.286167145
scalar OsgEarthNet.uav[82] utilizationEnergyCharge 185803.15917969
scalar OsgEarthNet.uav[82] utilizationEnergyOverdrawMission 0
scalar OsgEarthNet.uav[82] utilizationEnergyOverdrawMaintenance 0
scalar OsgEarthNet.uav[82] utilizationCountMissions 39
scalar OsgEarthNet.uav[82] utilizationCountManeuversMission 528
scalar OsgEarthNet.uav[82] utilizationCountManeuversMaintenance 78
scalar OsgEarthNet.uav[82] utilizationCountChargeState 39
scalar OsgEarthNet.uav[82] utilizationCountOverdrawnAfterMission 0
scalar OsgEarthNet.uav[82] utilizationCountIdleState 40
scalar OsgEarthNet.uav[82] utilizationFail 0
scalar OsgEarthNet.uav[82] simulationTime 259200
scalar OsgEarthNet.uav[83] utilizationSecMission 7753.1162114747
scalar OsgEarthNet.uav[83] utilizationSecMaintenance 3329.3869421703
scalar OsgEarthNet.uav[83] utilizationSecCharge 40910
scalar OsgEarthNet.uav[83] utilizationSecIdle 207207.49584636
scalar OsgEarthNet.uav[83] utilizationEnergyMission 35166.496932983
scalar OsgEarthNet.uav[83] utilizationEnergyMaintenance 15871.096878052
scalar OsgEarthNet.uav[83] utilizationEnergyCharge 51052.580566406
scalar OsgEarthNet.uav[83] utilizationEnergyOverdrawMission 0
scalar OsgEarthNet.uav[83] utilizationEnergyOverdrawMaintenance 0
scalar OsgEarthNet.uav[83] utilizationCountMissions 11
scalar OsgEarthNet.uav[83] utilizationCountManeuversMission 122
scalar OsgEarthNet.uav[83] utilizationCountManeuversMaintenance 22
scalar OsgEarthNet.uav[83] utilizationCountChargeState 11
scalar OsgEarthNet.uav[83] utilizationCountOverdrawnAfterMission 0
scalar OsgEarthNet.uav[83] utilizationCountIdleState 12
scalar OsgEarthNet.uav[83] utilizationFail 0
scalar OsgEarthNet.uav[83] simulationTime 259200
scalar OsgEarthNet.uav[84] utilizationSecMission 5180.7248266283
scalar OsgEarthNet.uav[84] utilizationSecMaintenance 2705.5757675572
scalar OsgEarthNet.uav[84] utilizationSecCharge 26380
scalar OsgEarthNet.uav[84] utilizationSecIdle 224933.69840581
scalar OsgEarthNet.uav[84] utilizationEnergyMission 23576.092598529
scalar OsgEarthNet.uav[84] utilizationEnergyMaintenance 12900.886108398
scalar OsgEarthNet.uav[84] utilizationEnergyCharge 33020.636230469
scalar OsgEarthNet.uav[84] utilizationEnergyOverdrawMission 0
scalar OsgEarthNet.uav[84] utilizationEnergyOverdrawMaintenance 0
scalar OsgEarthNet.uav[84] utilizationCountMissions 7
scalar OsgEarthNet.uav[84] utilizationCountManeuversMission 87
scalar OsgEarthNet.uav[84] utilizationCountManeuversMaintenance 15
scalar OsgEarthNet.uav[84] utilizationCountChargeState 7
scalar OsgEarthNet.uav[84] utilizationCountOverdrawnAfterMission 0
scalar OsgEarthNet.uav[84] utilizationCountIdleState 8
scalar OsgEarthNet.uav[84] utilizationFail 0
scalar OsgEarthNet.uav[84] simulationTime 259200
scalar OsgEarthNet.uav[85] utilizationSecMission 28339.131286414
scalar OsgEarthNet.uav[85] utilizationSecMaintenance 8822.726215059
scalar OsgEarthNet.uav[85] utilizationSecCharge 132213.41727249
scalar OsgEarthNet.uav[85] utilizationSecIdle 89824.724226037
scalar OsgEarthNet.uav[85] utilizationEnergyMission 130365.43756485
scalar OsgEarthNet.uav[85] utilizationEnergyMaintenance 39624.859558105
scalar OsgEarthNet.uav[85] utilizationEnergyCharge 165836.40093994
scalar OsgEarthNet.uav[85] utilizationEnergyOverdrawMission 0
scalar OsgEarthNet.uav[85] utilizationEnergyOverdrawMaintenance 0
scalar OsgEarthNet.uav[85] utilizationCountMissions 36
scalar OsgEarthNet.uav[85] utilizationCountManeuversMission 487
scalar OsgEarthNet.uav[85] utilizationCountManeuversMaintenance 72
scalar OsgEarthNet.uav[85] utilizationCountChargeState 36
scalar OsgEarthNet.uav[85] utilizationCountOverdrawnAfterMission 0
scalar OsgEarthNet.uav[85] utilizationCountIdleState 36
scalar OsgEarthNet.uav[85] utilizationFail 0
scalar OsgEarthNet.uav[85] simulationTime 259200
scalar OsgEarthNet.uav[86] utilizationSecMission 14054.924808872
scalar OsgEarthNet.uav[86] utilizationSecMaintenance 4854.2361067041
scalar OsgEarthNet.uav[86] utilizationSecCharge 70330
scalar OsgEarthNet.uav[86] utilizationSecIdle 169960.83808442
scalar OsgEarthNet.uav[86] utilizationEnergyMission 64685.067443848
scalar OsgEarthNet.uav[86] utilizationEnergyMaintenance 22904.834018707
scalar OsgEarthNet.uav[86] utilizationEnergyCharge 87589.88671875
scalar OsgEarthNet.uav[86] utilizationEnergyOverdrawMission 0
scalar OsgEarthNet.uav[86] utilizationEnergyOverdrawMaintenance 0
scalar OsgEarthNet.uav[86] utilizationCountMissions 19
scalar OsgEarthNet.uav[86] utilizationCountManeuversMission 214
scalar OsgEarthNet.uav[86] utilizationCountManeuversMaintenance 38
scalar OsgEarthNet.uav[86] utilizationCountChargeState 19
scalar OsgEarthNet.uav[86] utilizationCountOverdrawnAfterMission 0
scalar OsgEarthNet.uav[86] utilizationCountIdleState 20
scalar OsgEarthNet.uav[86] utilizationFail 0
scalar OsgEarthNet.uav[86] simulationTime 259200
scalar OsgEarthNet.uav[87] utilizationSecMission 4914.5057349201
scalar OsgEarthNet.uav[87] utilizationSecMaintenance 2050.2273550846
scalar OsgEarthNet.uav[87] utilizationSecCharge 26200
scalar OsgEarthNet.uav[87] utilizationSecIdle 226035.26591
scalar OsgEarthNet.uav[87] utilizationEnergyMission 22923.008995056
scalar OsgEarthNet.uav[87] utilizationEnergyMaintenance 9940.7844543457
scalar OsgEarthNet.uav[87] utilizationEnergyCharge 32863.790527344
scalar OsgEarthNet.uav[87] utilizationEnergyOverdrawMission 0
scalar OsgEarthNet.uav[87] utilizationEnergyOverdrawMaintenance 0
scalar OsgEarthNet.uav[87] utilizationCountMissions 7
scalar OsgEarthNet.uav[87] utilizationCountManeuversMission 83
scalar OsgEarthNet.uav[87] utilizationCountManeuversMaintenance 14
scalar OsgEarthNet.uav[87] utilizationCountChargeState 7
scalar OsgEarthNet.uav[87] utilizationCountOverdrawnAfterMission 0
scalar OsgEarthNet.uav[87] utilizationCountIdleState 8
scalar OsgEarthNet.uav[87] utilizationFail 0
scalar OsgEarthNet.uav[87] simulationTime 259200
scalar OsgEarthNet.uav[88] utilizationSecMission 24976.68066047
scalar OsgEarthNet.uav[88] utilizationSecMaintenance 8924.2268364978
scalar OsgEarthNet.uav[88] utilizationSecCharge 124760
scalar OsgEarthNet.uav[88] utilizationSecIdle 100539.09150303
scalar OsgEarthNet.uav[88] utilizationEnergyMission 113972.72228241
scalar OsgEarthNet.uav[88] utilizationEnergyMaintenance 41971.715496063
scalar OsgEarthNet.uav[88] utilizationEnergyCharge 156653.87695312
scalar OsgEarthNet.uav[88] utilizationEnergyOverdrawMission 0
scalar OsgEarthNet.uav[88] utilizationEnergyOverdrawMaintenance 0
scalar OsgEarthNet.uav[88] utilizationCountMissions 33
scalar OsgEarthNet.uav[88] utilizationCountManeuversMission 433
scalar OsgEarthNet.uav[88] utilizationCountManeuversMaintenance 66
scalar OsgEarthNet.uav[88] utilizationCountChargeState 33
scalar OsgEarthNet.uav[88] utilizationCountOverdrawnAfterMission 0
scalar OsgEarthNet.uav[88] utilizationCountIdleState 34
scalar OsgEarthNet.uav[88] utilizationFail 0
scalar OsgEarthNet.uav[88] simulationTime 259200
scalar OsgEarthNet.uav[89] utilizationSecMission 5304.5502082463
scalar OsgEarthNet.uav[89] utilizationSecMaintenance 2832.7346304045
scalar OsgEarthNet.uav[89] utilizationSecCharge 29770
scalar OsgEarthNet.uav[89] utilizationSecIdle 221292.71416135
scalar OsgEarthNet.uav[89] utilizationEnergyMission 24196.364868164
scalar OsgEarthNet.uav[89] utilizationEnergyMaintenance 13477.238903046
scalar OsgEarthNet.uav[89] utilizationEnergyCharge 37673.593261719
scalar OsgEarthNet.uav[89] utilizationEnergyOverdrawMission 0
scalar OsgEarthNet.uav[89] utilizationEnergyOverdrawMaintenance 0
scalar OsgEarthNet.uav[89] utilizationCountMissions 8
scalar OsgEarthNet.uav[89] utilizationCountManeuversMission 88
scalar OsgEarthNet.uav[89] utilizationCountManeuversMaintenance 16
scalar OsgEarthNet.uav[89] utilizationCountChargeState 8
scalar OsgEarthNet.uav[89] utilizationCountOverdrawnAfterMission 0
scalar OsgEarthNet.uav[89] utilizationCountIdleState 8
scalar OsgEarthNet.uav[89] utilizationFail 0
scalar OsgEarthNet.uav[89] simulationTime 259200
scalar OsgEarthNet.uav[90] utilizationSecMission 5542.2692455783
scalar OsgEarthNet.uav[90] utilizationSecMaintenance 2549.0179092558
scalar OsgEarthNet.uav[90] utilizationSecCharge 29930
scalar OsgEarthNet.uav[90] utilizationSecIdle 221178.71184517
scalar OsgEarthNet.uav[90] utilizationEnergyMission 25492.782699585
scalar OsgEarthNet.uav[90] utilizationEnergyMaintenance 12023.86239624
scalar OsgEarthNet.uav[90] utilizationEnergyCharge 37516.6484375
scalar OsgEarthNet.uav[90] utilizationEnergyOverdrawMission 0
scalar OsgEarthNet.uav[90] utilizationEnergyOverdrawMaintenance 0
scalar OsgEarthNet.uav[90] utilizationCountMissions 8
scalar OsgEarthNet.uav[90] utilizationCountManeuversMission 89
scalar OsgEarthNet.uav[90] utilizationCountManeuversMaintenance 16
scalar OsgEarthNet.uav[90] utilizationCountChargeState 8
scalar OsgEarthNet.uav[90] utilizationCountOverdrawnAfterMission 0
scalar OsgEarthNet.uav[90] utilizationCountIdleState 9
scalar OsgEarthNet.uav[90] utilizationFail 0
scalar OsgEarthNet.uav[90] simulationTime 259200
scalar OsgEarthNet.uav[91] utilizationSecMission 5422.6233326924
scalar OsgEarthNet.uav[91] utilizationSecMaintenance 2509.236324696
scalar OsgEarthNet.uav[91] utilizationSecCharge 29260
scalar OsgEarthNet.uav[91] utilizationSecIdle 222008.13934261
scalar OsgEarthNet.uav[91] utilizationEnergyMission 25234.041992187
scalar OsgEarthNet.uav[91] utilizationEnergyMaintenance 11965.055358887
scalar OsgEarthNet.uav[91] utilizationEnergyCharge 37199.106933594
scalar OsgEarthNet.uav[91] utilizationEnergyOverdrawMission 0
scalar OsgEarthNet.uav[91] utilizationEnergyOverdrawMaintenance 0
scalar OsgEarthNet.uav[91] utilizationCountMissions 8
scalar OsgEarthNet.uav[91] utilizationCountManeuversMission 91
scalar OsgEarthNet.uav[91] utilizationCountManeuversMaintenance 16
scalar OsgEarthNet.uav[91] utilizationCountChargeState 8
scalar OsgEarthNet.uav[91] utilizationCountOverdrawnAfterMission 0
scalar OsgEarthNet.uav[91] utilizationCountIdleState 6
scalar OsgEarthNet.uav[91] utilizationFail 0
scalar OsgEarthNet.uav[91] simulationTime 259200
scalar OsgEarthNet.uav[92] utilizationSecMission 26968.949141031
scalar OsgEarthNet.uav[92] utilizationSecMaintenance 8940.1332674357
scalar OsgEarthNet.uav[92] utilizationSecCharge 133010
scalar OsgEarthNet.uav[92] utilizationSecIdle 90280.916591533
scalar OsgEarthNet.uav[92] utilizationEnergyMission 124147.93489075
scalar OsgEarthNet.uav[92] utilizationEnergyMaintenance 41842.633041382
scalar OsgEarthNet.uav[92] utilizationEnergyCharge 167136.56152344
scalar OsgEarthNet.uav[92] utilizationEnergyOverdrawMission 0
scalar OsgEarthNet.uav[92] utilizationEnergyOverdrawMaintenance 0
scalar OsgEarthNet.uav[92] utilizationCountMissions 35
scalar OsgEarthNet.uav[92] utilizationCountManeuversMission 460
scalar OsgEarthNet.uav[92] utilizationCountManeuversMaintenance 70
scalar OsgEarthNet.uav[92] utilizationCountChargeState 35
scalar OsgEarthNet.uav[92] utilizationCountOverdrawnAfterMission 0
scalar OsgEarthNet.uav[92] utilizationCountIdleState 36
scalar OsgEarthNet.uav[92] utilizationFail 0
scalar OsgEarthNet.uav[92] simulationTime 259200
scalar OsgEarthNet.uav[93] utilizationSecMission 6815.2238740165
scalar OsgEarthNet.uav[93] utilizationSecMaintenance 3170.9292307345
scalar OsgEarthNet.uav[93] utilizationSecCharge 37020
scalar OsgEarthNet.uav[93] utilizationSecIdle 212193.84589525
scalar OsgEarthNet.uav[93] utilizationEnergyMission 32133.643753052
scalar OsgEarthNet.uav[93] utilizationEnergyMaintenance 14741.770816803
scalar OsgEarthNet.uav[93] utilizationEnergyCharge 46875.420898438
scalar OsgEarthNet.uav[93] utilizationEnergyOverdrawMission 0
scalar OsgEarthNet.uav[93] utilizationEnergyOverdrawMaintenance 0
scalar OsgEarthNet.uav[93] utilizationCountMissions 10
scalar OsgEarthNet.uav[93] utilizationCountManeuversMission 107
scalar OsgEarthNet.uav[93] utilizationCountManeuversMaintenance 20
scalar OsgEarthNet.uav[93] utilizationCountChargeState 10
scalar OsgEarthNet.uav[93] utilizationCountOverdrawnAfterMission 0
scalar OsgEarthNet.uav[93] utilizationCountIdleState 10
scalar OsgEarthNet.uav[93] utilizationFail 0
scalar OsgEarthNet.uav[93] simulationTime 259200
scalar OsgEarthNet.uav[94] utilizationSecMission 1398.7600820332
scalar OsgEarthNet.uav[94] utilizationSecMaintenance 620.77464670782
scalar OsgEarthNet.uav[94] utilizationSecCharge 7680
scalar OsgEarthNet.uav[94] utilizationSecIdle 249500.46427126
scalar OsgEarthNet.uav[94] utilizationEnergyMission 6496.0035858154
scalar OsgEarthNet.uav[94] utilizationEnergyMaintenance 3169.4070968628
scalar OsgEarthNet.uav[94] utilizationEnergyCharge 9665.4091796875
scalar OsgEarthNet.uav[94] utilizationEnergyOverdrawMission 0
scalar OsgEarthNet.uav[94] utilizationEnergyOverdrawMaintenance 0
scalar OsgEarthNet.uav[94] utilizationCountMissions 2
scalar OsgEarthNet.uav[94] utilizationCountManeuversMission 22
scalar OsgEarthNet.uav[94] utilizationCountManeuversMaintenance 4
scalar OsgEarthNet.uav[94] utilizationCountChargeState 2
scalar OsgEarthNet.uav[94] utilizationCountOverdrawnAfterMission 0
scalar OsgEarthNet.uav[94] utilizationCountIdleState 3
scalar OsgEarthNet.uav[94] utilizationFail 0
scalar OsgEarthNet.uav[94] simulationTime 259200
scalar OsgEarthNet.uav[95] utilizationSecMission 28780.280652271
scalar OsgEarthNet.uav[95] utilizationSecMaintenance 9634.8947537352
scalar OsgEarthNet.uav[95] utilizationSecCharge 138781.29826276
scalar OsgEarthNet.uav[95] utilizationSecIdle 82003.525331232
scalar OsgEarthNet.uav[95] utilizationEnergyMission 131604.60390472
scalar OsgEarthNet.uav[95] utilizationEnergyMaintenance 43847.924297333
scalar OsgEarthNet.uav[95] utilizationEnergyCharge 175231.45117188
scalar OsgEarthNet.uav[95] utilizationEnergyOverdrawMission 0
scalar OsgEarthNet.uav[95] utilizationEnergyOverdrawMaintenance 0
scalar OsgEarthNet.uav[95] utilizationCountMissions 37
scalar OsgEarthNet.uav[95] utilizationCountManeuversMission 499
scalar OsgEarthNet.uav[95] utilizationCountManeuversMaintenance 74
scalar OsgEarthNet.uav[95] utilizationCountChargeState 37
scalar OsgEarthNet.uav[95] utilizationCountOverdrawnAfterMission 0
scalar OsgEarthNet.uav[95] utilizationCountIdleState 37
scalar OsgEarthNet.uav[95] utilizationFail 0
scalar OsgEarthNet.uav[95] simulationTime 259200
scalar OsgEarthNet.uav[96] utilizationSecMission 16544.312182819
scalar OsgEarthNet.uav[96] utilizationSecMaintenance 5327.5816350257
scalar OsgEarthNet.uav[96] utilizationSecCharge 82020
scalar OsgEarthNet.uav[96] utilizationSecIdle 155308.10518216
scalar OsgEarthNet.uav[96] utilizationEnergyMission 76707.610916138
scalar OsgEarthNet.uav[96] utilizationEnergyMaintenance 25650.067390442
scalar OsgEarthNet.uav[96] utilizationEnergyCharge 102376.20703125
scalar OsgEarthNet.uav[96] utilizationEnergyOverdrawMission 0
scalar OsgEarthNet.uav[96] utilizationEnergyOverdrawMaintenance 0
scalar OsgEarthNet.uav[96] utilizationCountMissions 22
scalar OsgEarthNet.uav[96] utilizationCountManeuversMission 252
scalar OsgEarthNet.uav[96] utilizationCountManeuversMaintenance 44
scalar OsgEarthNet.uav[96] utilizationCountChargeState 22
scalar OsgEarthNet.uav[96] utilizationCountOverdrawnAfterMission 0
scalar OsgEarthNet.uav[96] utilizationCountIdleState 23
scalar OsgEarthNet.uav[96] utilizationFail 0
scalar OsgEarthNet.uav[96] simulationTime 259200
scalar OsgEarthNet.uav[97] utilizationSecMission 13751.697519476
scalar OsgEarthNet.uav[97] utilizationSecMaintenance 5302.419009324
scalar OsgEarthNet.uav[97] utilizationSecCharge 66623.8824712
scalar OsgEarthNet.uav[97] utilizationSecIdle 173522
scalar OsgEarthNet.uav[97] utilizationEnergyMission 62605.954315186
scalar OsgEarthNet.uav[97] utilizationEnergyMaintenance 25577.915592194
scalar OsgEarthNet.uav[97] utilizationEnergyCharge 84767.258300781
scalar OsgEarthNet.uav[97] utilizationEnergyOverdrawMission 0
scalar OsgEarthNet.uav[97] utilizationEnergyOverdrawMaintenance 0
scalar OsgEarthNet.uav[97] utilizationCountMissions 19
scalar OsgEarthNet.uav[97] utilizationCountManeuversMission 215
scalar OsgEarthNet.uav[97] utilizationCountManeuversMaintenance 37
scalar OsgEarthNet.uav[97] utilizationCountChargeState 19
scalar OsgEarthNet.uav[97] utilizationCountOverdrawnAfterMission 0
scalar OsgEarthNet.uav[97] utilizationCountIdleState 12
scalar OsgEarthNet.uav[97] utilizationFail 0
scalar OsgEarthNet.uav[97] simulationTime 259200
scalar OsgEarthNet.uav[98] utilizationSecMission 9919.8022886417
scalar OsgEarthNet.uav[98] utilizationSecMaintenance 3978.5799398931
scalar OsgEarthNet.uav[98] utilizationSecCharge 51780
scalar OsgEarthNet.uav[98] utilizationSecIdle 193521.61677147
scalar OsgEarthNet.uav[98] utilizationEnergyMission 45800.416061401
scalar OsgEarthNet.uav[98] utilizationEnergyMaintenance 19141.447120667
scalar OsgEarthNet.uav[98] utilizationEnergyCharge 64941.854492188
scalar OsgEarthNet.uav[98] utilizationEnergyOverdrawMission 0
scalar OsgEarthNet.uav[98] utilizationEnergyOverdrawMaintenance 0
scalar OsgEarthNet.uav[98] utilizationCountMissions 14
scalar OsgEarthNet.uav[98] utilizationCountManeuversMission 150
scalar OsgEarthNet.uav[98] utilizationCountManeuversMaintenance 28
scalar OsgEarthNet.uav[98] utilizationCountChargeState 14
scalar OsgEarthNet.uav[98] utilizationCountOverdrawnAfterMission 0
scalar OsgEarthNet.uav[98] utilizationCountIdleState 14
scalar OsgEarthNet.uav[98] utilizationFail 0
scalar OsgEarthNet.uav[98] simulationTime 259200
scalar OsgEarthNet.uav[99] utilizationSecMission 6269.6427411407
scalar OsgEarthNet.uav[99] utilizationSecMaintenance 2847.2093758192
scalar OsgEarthNet.uav[99] utilizationSecCharge 33250
scalar OsgEarthNet.uav[99] utilizationSecIdle 216833.14688304
scalar OsgEarthNet.uav[99] utilizationEnergyMission 28694.114875793
scalar OsgEarthNet.uav[99] utilizationEnergyMaintenance 13244.436351776
scalar OsgEarthNet.uav[99] utilizationEnergyCharge 41938.563476562
scalar OsgEarthNet.uav[99] utilizationEnergyOverdrawMission 0
scalar OsgEarthNet.uav[99] utilizationEnergyOverdrawMaintenance 0
scalar OsgEarthNet.uav[99] utilizationCountMissions 9
scalar OsgEarthNet.uav[99] utilizationCountManeuversMission 102
scalar OsgEarthNet.uav[99] utilizationCountManeuversMaintenance 18
scalar OsgEarthNet.uav[99] utilizationCountChargeState 9
scalar OsgEarthNet.uav[99] utilizationCountOverdrawnAfterMission 0
scalar OsgEarthNet.uav[99] utilizationCountIdleState 9
scalar OsgEarthNet.uav[99] utilizationFail 0
scalar OsgEarthNet.uav[99] simulationTime 259200
scalar OsgEarthNet.cs[0] usedPower 23289.445776113
scalar OsgEarthNet.cs[0] chargedPower 23289.445776113
scalar OsgEarthNet.cs[0] chargedMobileNodes 5
scalar OsgEarthNet.cs[0] reservations 5
scalar OsgEarthNet.cs[1] usedPower 1009938.4373493
scalar OsgEarthNet.cs[1] chargedPower 1009938.4373493
scalar OsgEarthNet.cs[1] chargedMobileNodes 213
scalar OsgEarthNet.cs[1] reservations 215
scalar OsgEarthNet.cs[2] usedPower 3124221.8847083
scalar OsgEarthNet.cs[2] chargedPower 3124221.8847083
scalar OsgEarthNet.cs[2] chargedMobileNodes 650
scalar OsgEarthNet.cs[2] reservations 660
scalar OsgEarthNet.cs[3] usedPower 0
scalar OsgEarthNet.cs[3] chargedPower 0
scalar OsgEarthNet.cs[3] chargedMobileNodes 0
scalar OsgEarthNet.cs[3] reservations 0
scalar OsgEarthNet.cs[4] usedPower 616237.20381702
scalar OsgEarthNet.cs[4] chargedPower 616237.20381702
scalar OsgEarthNet.cs[4] chargedMobileNodes 83
scalar OsgEarthNet.cs[4] reservations 133
scalar OsgEarthNet.cs[5] usedPower 240365.59317096
scalar OsgEarthNet.cs[5] chargedPower 240365.59317096
scalar OsgEarthNet.cs[5] chargedMobileNodes 36
scalar OsgEarthNet.cs[5] reservations 51
scalar OsgEarthNet.cs[6] usedPower 3118808.6654213
scalar OsgEarthNet.cs[6] chargedPower 3118808.6654213
scalar OsgEarthNet.cs[6] chargedMobileNodes 586
scalar OsgEarthNet.cs[6] reservations 677

