version 2
run Szenario_Hotel_Gabelbach-7-20180710-12:17:50-39608
attr configname Szenario_Hotel_Gabelbach
attr datetime 20180710-12:17:50
attr experiment Szenario_Hotel_Gabelbach
attr inifile omnetpp.ini
attr iterationvars "$numUAVs=50, $replM=0, $replSearchM=0"
attr iterationvarsf numUAVs=50,replM=0,replSearchM=0-
attr measurement "$numUAVs=50, $replM=0, $replSearchM=0"
attr network OsgEarthNet
attr processid 39608
attr repetition 7
attr replication #7
attr resultdir results
attr runnumber 7
attr seedset 7
itervar numUAVs 50
itervar replM 0
itervar replSearchM 0
param *.osgEarthScene.scene "\"Szenario_Hotel_Gabelbach.earth\""
param *.playgroundLatitude 50.6830269
param *.playgroundLongitude 10.8538055
param *.playgroundWidth 3500m
param *.playgroundHeight 3500m
param *.cs[0].posX 3537m
param *.cs[0].posY 965m
param *.cs[0].posZ 538m
param *.cs[1].posX 312m
param *.cs[1].posY 1262m
param *.cs[1].posZ 539m
param *.cs[2].posX 2185m
param *.cs[2].posY 3026m
param *.cs[2].posZ 777m
param *.cs[3].posX 10m
param *.cs[3].posY 2200m
param *.cs[3].posZ 560m
param *.cs[4].posX 750m
param *.cs[4].posY 200m
param *.cs[4].posZ 540m
param *.cs[5].posX 2450m
param *.cs[5].posY 180m
param *.cs[5].posZ 524m
param *.cs[6].posX 3140m
param *.cs[6].posY 1790m
param *.cs[6].posZ 606m
param *.numCSs 7
param *.numUAVs 50
param *.uav[*].replacementMethod 0
param *.missionControl.replacementSearchMethod 0
param *.*.timeStep 10s
param *.uav[*].commandPreviewCommandCount 20
param *.missionControl.missionFiles "\"missions\\\\Szenario_WB_Hotel_Gabelbach_Mission_Hotel.waypoints,missions\\\\Szenario_WB_Hotel_Gabelbach_Mission_Kickelhahn.waypoints,missions\\\\Szenario_WB_Hotel_Gabelbach_Mission_Ilmenau_Sportplatz.waypoints,missions\\\\Szenario_WB_Hotel_Gabelbach_Mission_Manebach_Mitte.waypoints,missions\\\\Szenario_WB_Hotel_Gabelbach_Mission_Manebach_Sued.waypoints\""
param *.missionControl.missionFiles "\"missions\\\\Szenario_WB_Hotel_Gabelbach_Mission_Hotel.waypoints,missions\\\\Szenario_WB_Hotel_Gabelbach_Mission_Kickelhahn.waypoints,missions\\\\Szenario_WB_Hotel_Gabelbach_Mission_Ilmenau_Sportplatz.waypoints,missions\\\\Szenario_WB_Hotel_Gabelbach_Mission_Manebach_Mitte.waypoints,missions\\\\Szenario_WB_Hotel_Gabelbach_Mission_Manebach_Sued.waypoints,missions\\\\Szenario_WB_Hotel_Gabelbach_Hover_HoheSchlaufe.waypoints,missions\\\\Szenario_WB_Hotel_Gabelbach_Hover_Kickelhahn.waypoints,missions\\\\Szenario_WB_Hotel_Gabelbach_Hover_Gabelbachskopf.waypoints,missions\\\\Szenario_WB_Hotel_Gabelbach_Hover_Dachskopf.waypoints\""
param *.uav[0].startX 3537m
param *.uav[0].startY 965m
param *.uav[0].startZ 539m
param *.uav[1].startX 312m
param *.uav[1].startY 1262m
param *.uav[1].startZ 540m
param *.uav[2].startX 2185m
param *.uav[2].startY 3026m
param *.uav[2].startZ 778m
param *.uav[3].startX 3537m
param *.uav[3].startY 965m
param *.uav[3].startZ 539m
param *.uav[4].startX 312m
param *.uav[4].startY 1262m
param *.uav[4].startZ 540m
param *.uav[5].startX 2185m
param *.uav[5].startY 3026m
param *.uav[5].startZ 778m
param *.uav[6].startX 3537m
param *.uav[6].startY 965m
param *.uav[6].startZ 539m
param *.uav[7].startX 312m
param *.uav[7].startY 1262m
param *.uav[7].startZ 540m
param *.uav[8].startX 2185m
param *.uav[8].startY 3026m
param *.uav[8].startZ 778m
param *.uav[9].startX 3537m
param *.uav[9].startY 965m
param *.uav[9].startZ 539m
param *.uav[10].startX 3537m
param *.uav[10].startY 965m
param *.uav[10].startZ 539m
param *.uav[11].startX 312m
param *.uav[11].startY 1262m
param *.uav[11].startZ 540m
param *.uav[12].startX 2185m
param *.uav[12].startY 3026m
param *.uav[12].startZ 778m
param *.uav[13].startX 3537m
param *.uav[13].startY 965m
param *.uav[13].startZ 539m
param *.uav[14].startX 312m
param *.uav[14].startY 1262m
param *.uav[14].startZ 540m
param *.uav[15].startX 2185m
param *.uav[15].startY 3026m
param *.uav[15].startZ 778m
param *.uav[16].startX 3537m
param *.uav[16].startY 965m
param *.uav[16].startZ 539m
param *.uav[17].startX 312m
param *.uav[17].startY 1262m
param *.uav[17].startZ 540m
param *.uav[18].startX 2185m
param *.uav[18].startY 3026m
param *.uav[18].startZ 778m
param *.uav[19].startX 3537m
param *.uav[19].startY 965m
param *.uav[19].startZ 539m
param *.uav[20].startX 3537m
param *.uav[20].startY 965m
param *.uav[20].startZ 539m
param *.uav[21].startX 312m
param *.uav[21].startY 1262m
param *.uav[21].startZ 540m
param *.uav[22].startX 2185m
param *.uav[22].startY 3026m
param *.uav[22].startZ 778m
param *.uav[23].startX 3537m
param *.uav[23].startY 965m
param *.uav[23].startZ 539m
param *.uav[24].startX 312m
param *.uav[24].startY 1262m
param *.uav[24].startZ 540m
param *.uav[25].startX 2185m
param *.uav[25].startY 3026m
param *.uav[25].startZ 778m
param *.uav[26].startX 3537m
param *.uav[26].startY 965m
param *.uav[26].startZ 539m
param *.uav[27].startX 312m
param *.uav[27].startY 1262m
param *.uav[27].startZ 540m
param *.uav[28].startX 2185m
param *.uav[28].startY 3026m
param *.uav[28].startZ 778m
param *.uav[29].startX 3537m
param *.uav[29].startY 965m
param *.uav[29].startZ 539m
param *.uav[30].startX 3537m
param *.uav[30].startY 965m
param *.uav[30].startZ 539m
param *.uav[31].startX 312m
param *.uav[31].startY 1262m
param *.uav[31].startZ 540m
param *.uav[32].startX 2185m
param *.uav[32].startY 3026m
param *.uav[32].startZ 778m
param *.uav[33].startX 3537m
param *.uav[33].startY 965m
param *.uav[33].startZ 539m
param *.uav[34].startX 312m
param *.uav[34].startY 1262m
param *.uav[34].startZ 540m
param *.uav[35].startX 2185m
param *.uav[35].startY 3026m
param *.uav[35].startZ 778m
param *.uav[36].startX 3537m
param *.uav[36].startY 965m
param *.uav[36].startZ 539m
param *.uav[37].startX 312m
param *.uav[37].startY 1262m
param *.uav[37].startZ 540m
param *.uav[38].startX 2185m
param *.uav[38].startY 3026m
param *.uav[38].startZ 778m
param *.uav[39].startX 3537m
param *.uav[39].startY 965m
param *.uav[39].startZ 539m
param *.uav[40].startX 3537m
param *.uav[40].startY 965m
param *.uav[40].startZ 539m
param *.uav[41].startX 312m
param *.uav[41].startY 1262m
param *.uav[41].startZ 540m
param *.uav[42].startX 2185m
param *.uav[42].startY 3026m
param *.uav[42].startZ 778m
param *.uav[43].startX 3537m
param *.uav[43].startY 965m
param *.uav[43].startZ 539m
param *.uav[44].startX 312m
param *.uav[44].startY 1262m
param *.uav[44].startZ 540m
param *.uav[45].startX 2185m
param *.uav[45].startY 3026m
param *.uav[45].startZ 778m
param *.uav[46].startX 3537m
param *.uav[46].startY 965m
param *.uav[46].startZ 539m
param *.uav[47].startX 312m
param *.uav[47].startY 1262m
param *.uav[47].startZ 540m
param *.uav[48].startX 2185m
param *.uav[48].startY 3026m
param *.uav[48].startZ 778m
param *.uav[49].startX 3537m
param *.uav[49].startY 965m
param *.uav[49].startZ 539m
param *.uav[50].startX 3537m
param *.uav[50].startY 965m
param *.uav[50].startZ 539m
param *.uav[51].startX 312m
param *.uav[51].startY 1262m
param *.uav[51].startZ 540m
param *.uav[52].startX 2185m
param *.uav[52].startY 3026m
param *.uav[52].startZ 778m
param *.uav[53].startX 3537m
param *.uav[53].startY 965m
param *.uav[53].startZ 539m
param *.uav[54].startX 312m
param *.uav[54].startY 1262m
param *.uav[54].startZ 540m
param *.uav[55].startX 2185m
param *.uav[55].startY 3026m
param *.uav[55].startZ 778m
param *.uav[56].startX 3537m
param *.uav[56].startY 965m
param *.uav[56].startZ 539m
param *.uav[57].startX 312m
param *.uav[57].startY 1262m
param *.uav[57].startZ 540m
param *.uav[58].startX 2185m
param *.uav[58].startY 3026m
param *.uav[58].startZ 778m
param *.uav[59].startX 3537m
param *.uav[59].startY 965m
param *.uav[59].startZ 539m
param *.uav[60].startX 3537m
param *.uav[60].startY 965m
param *.uav[60].startZ 539m
param *.uav[61].startX 312m
param *.uav[61].startY 1262m
param *.uav[61].startZ 540m
param *.uav[62].startX 2185m
param *.uav[62].startY 3026m
param *.uav[62].startZ 778m
param *.uav[63].startX 3537m
param *.uav[63].startY 965m
param *.uav[63].startZ 539m
param *.uav[64].startX 312m
param *.uav[64].startY 1262m
param *.uav[64].startZ 540m
param *.uav[65].startX 2185m
param *.uav[65].startY 3026m
param *.uav[65].startZ 778m
param *.uav[66].startX 3537m
param *.uav[66].startY 965m
param *.uav[66].startZ 539m
param *.uav[67].startX 312m
param *.uav[67].startY 1262m
param *.uav[67].startZ 540m
param *.uav[68].startX 2185m
param *.uav[68].startY 3026m
param *.uav[68].startZ 778m
param *.uav[69].startX 3537m
param *.uav[69].startY 965m
param *.uav[69].startZ 539m
param *.uav[70].startX 3537m
param *.uav[70].startY 965m
param *.uav[70].startZ 539m
param *.uav[71].startX 312m
param *.uav[71].startY 1262m
param *.uav[71].startZ 540m
param *.uav[72].startX 2185m
param *.uav[72].startY 3026m
param *.uav[72].startZ 778m
param *.uav[73].startX 3537m
param *.uav[73].startY 965m
param *.uav[73].startZ 539m
param *.uav[74].startX 312m
param *.uav[74].startY 1262m
param *.uav[74].startZ 540m
param *.uav[75].startX 2185m
param *.uav[75].startY 3026m
param *.uav[75].startZ 778m
param *.uav[76].startX 3537m
param *.uav[76].startY 965m
param *.uav[76].startZ 539m
param *.uav[77].startX 312m
param *.uav[77].startY 1262m
param *.uav[77].startZ 540m
param *.uav[78].startX 2185m
param *.uav[78].startY 3026m
param *.uav[78].startZ 778m
param *.uav[79].startX 3537m
param *.uav[79].startY 965m
param *.uav[79].startZ 539m
param *.uav[80].startX 3537m
param *.uav[80].startY 965m
param *.uav[80].startZ 539m
param *.uav[81].startX 312m
param *.uav[81].startY 1262m
param *.uav[81].startZ 540m
param *.uav[82].startX 2185m
param *.uav[82].startY 3026m
param *.uav[82].startZ 778m
param *.uav[83].startX 3537m
param *.uav[83].startY 965m
param *.uav[83].startZ 539m
param *.uav[84].startX 312m
param *.uav[84].startY 1262m
param *.uav[84].startZ 540m
param *.uav[85].startX 2185m
param *.uav[85].startY 3026m
param *.uav[85].startZ 778m
param *.uav[86].startX 3537m
param *.uav[86].startY 965m
param *.uav[86].startZ 539m
param *.uav[87].startX 312m
param *.uav[87].startY 1262m
param *.uav[87].startZ 540m
param *.uav[88].startX 2185m
param *.uav[88].startY 3026m
param *.uav[88].startZ 778m
param *.uav[89].startX 3537m
param *.uav[89].startY 965m
param *.uav[89].startZ 539m
param *.uav[90].startX 3537m
param *.uav[90].startY 965m
param *.uav[90].startZ 539m
param *.uav[91].startX 312m
param *.uav[91].startY 1262m
param *.uav[91].startZ 540m
param *.uav[92].startX 2185m
param *.uav[92].startY 3026m
param *.uav[92].startZ 778m
param *.uav[93].startX 3537m
param *.uav[93].startY 965m
param *.uav[93].startZ 539m
param *.uav[94].startX 312m
param *.uav[94].startY 1262m
param *.uav[94].startZ 540m
param *.uav[95].startX 2185m
param *.uav[95].startY 3026m
param *.uav[95].startZ 778m
param *.uav[96].startX 3537m
param *.uav[96].startY 965m
param *.uav[96].startZ 539m
param *.uav[97].startX 312m
param *.uav[97].startY 1262m
param *.uav[97].startZ 540m
param *.uav[98].startX 2185m
param *.uav[98].startY 3026m
param *.uav[98].startZ 778m
param *.uav[99].startX 3537m
param *.uav[99].startY 965m
param *.uav[99].startZ 539m
param *.osgEarthScene.scene "\"boston.earth\""
param *.playgroundLatitude 42.3558
param *.playgroundLongitude -71.0677
param *.playgroundWidth 400m
param *.playgroundHeight 200m
param *.channelController.connectionColor "\"#0000FF40\""
param *.channelController.showConnections false
param *.uav[*].modelURL "\"quadrocopter.small.obj.15.scale.0,0,90.rot\""
param *.uav[*].labelColor "\"#FF7C00CC\""
param *.uav[*].label2Color "\"#FF7C00EE\""
param *.uav[*].batteryCapacity 5200mAh
param *.uav[*].batteryRemaining uav[index].batteryCapacity
param *.uav[*].predictionQuantile 0.95
param *.uav[*].replacementMethod 2
param *.uav[*].weightedSumWeight 0.5
param *.cs[*].modelURL "\"chargingstation_v1.osgt.2.scale.0,0,0.rot.0,0,-15e-1.trans\""
param *.cs[*].spotsWaiting 999
param *.cs[*].spotsCharging 999
param *.cs[*].chargeEffectivenessPercentage 100
param *.cs[*].nonLinearPhaseStartPercentage 85
param *.cs[*].chargeCurrent 6.0A
param *.cs[*].prioritizeFastCharge true
param *.missionControl.replacementSearchMethod 0
param *.*.timeStep 9s

scalar OsgEarthNet.uav[0] utilizationSecMission 25797.867719443
scalar OsgEarthNet.uav[0] utilizationSecMaintenance 15101.169390633
scalar OsgEarthNet.uav[0] utilizationSecCharge 150526.59237321
scalar OsgEarthNet.uav[0] utilizationSecIdle 67774.369516712
scalar OsgEarthNet.uav[0] utilizationEnergyMission 119521.51825333
scalar OsgEarthNet.uav[0] utilizationEnergyMaintenance 70814.926628113
scalar OsgEarthNet.uav[0] utilizationEnergyCharge 189991.27319336
scalar OsgEarthNet.uav[0] utilizationEnergyOverdrawMission 0
scalar OsgEarthNet.uav[0] utilizationEnergyOverdrawMaintenance 0
scalar OsgEarthNet.uav[0] utilizationCountMissions 41
scalar OsgEarthNet.uav[0] utilizationCountManeuversMission 429
scalar OsgEarthNet.uav[0] utilizationCountManeuversMaintenance 82
scalar OsgEarthNet.uav[0] utilizationCountChargeState 41
scalar OsgEarthNet.uav[0] utilizationCountOverdrawnAfterMission 0
scalar OsgEarthNet.uav[0] utilizationCountIdleState 41
scalar OsgEarthNet.uav[0] utilizationFail 0
scalar OsgEarthNet.uav[0] simulationTime 259200
scalar OsgEarthNet.uav[1] utilizationSecMission 30850.926414494
scalar OsgEarthNet.uav[1] utilizationSecMaintenance 14727.862341778
scalar OsgEarthNet.uav[1] utilizationSecCharge 168041.09155334
scalar OsgEarthNet.uav[1] utilizationSecIdle 45580.118690388
scalar OsgEarthNet.uav[1] utilizationEnergyMission 142741.43202972
scalar OsgEarthNet.uav[1] utilizationEnergyMaintenance 68673.238342285
scalar OsgEarthNet.uav[1] utilizationEnergyCharge 210830.33984375
scalar OsgEarthNet.uav[1] utilizationEnergyOverdrawMission 0
scalar OsgEarthNet.uav[1] utilizationEnergyOverdrawMaintenance 0
scalar OsgEarthNet.uav[1] utilizationCountMissions 46
scalar OsgEarthNet.uav[1] utilizationCountManeuversMission 497
scalar OsgEarthNet.uav[1] utilizationCountManeuversMaintenance 92
scalar OsgEarthNet.uav[1] utilizationCountChargeState 46
scalar OsgEarthNet.uav[1] utilizationCountOverdrawnAfterMission 0
scalar OsgEarthNet.uav[1] utilizationCountIdleState 46
scalar OsgEarthNet.uav[1] utilizationFail 0
scalar OsgEarthNet.uav[1] simulationTime 259200
scalar OsgEarthNet.uav[2] utilizationSecMission 28959.920908042
scalar OsgEarthNet.uav[2] utilizationSecMaintenance 13632.987420017
scalar OsgEarthNet.uav[2] utilizationSecCharge 157060
scalar OsgEarthNet.uav[2] utilizationSecIdle 59547.090671941
scalar OsgEarthNet.uav[2] utilizationEnergyMission 133141.24882889
scalar OsgEarthNet.uav[2] utilizationEnergyMaintenance 64358.218330383
scalar OsgEarthNet.uav[2] utilizationEnergyCharge 197628.50878906
scalar OsgEarthNet.uav[2] utilizationEnergyOverdrawMission 0
scalar OsgEarthNet.uav[2] utilizationEnergyOverdrawMaintenance 0
scalar OsgEarthNet.uav[2] utilizationCountMissions 42
scalar OsgEarthNet.uav[2] utilizationCountManeuversMission 463
scalar OsgEarthNet.uav[2] utilizationCountManeuversMaintenance 84
scalar OsgEarthNet.uav[2] utilizationCountChargeState 42
scalar OsgEarthNet.uav[2] utilizationCountOverdrawnAfterMission 0
scalar OsgEarthNet.uav[2] utilizationCountIdleState 43
scalar OsgEarthNet.uav[2] utilizationFail 0
scalar OsgEarthNet.uav[2] simulationTime 259200
scalar OsgEarthNet.uav[3] utilizationSecMission 16719.224395847
scalar OsgEarthNet.uav[3] utilizationSecMaintenance 8364.1339571724
scalar OsgEarthNet.uav[3] utilizationSecCharge 88484.192772727
scalar OsgEarthNet.uav[3] utilizationSecIdle 145632.44787425
scalar OsgEarthNet.uav[3] utilizationEnergyMission 75379.438652039
scalar OsgEarthNet.uav[3] utilizationEnergyMaintenance 38541.816112518
scalar OsgEarthNet.uav[3] utilizationEnergyCharge 110621.14892578
scalar OsgEarthNet.uav[3] utilizationEnergyOverdrawMission 0
scalar OsgEarthNet.uav[3] utilizationEnergyOverdrawMaintenance 0
scalar OsgEarthNet.uav[3] utilizationCountMissions 25
scalar OsgEarthNet.uav[3] utilizationCountManeuversMission 268
scalar OsgEarthNet.uav[3] utilizationCountManeuversMaintenance 50
scalar OsgEarthNet.uav[3] utilizationCountChargeState 25
scalar OsgEarthNet.uav[3] utilizationCountOverdrawnAfterMission 0
scalar OsgEarthNet.uav[3] utilizationCountIdleState 25
scalar OsgEarthNet.uav[3] utilizationFail 0
scalar OsgEarthNet.uav[3] simulationTime 259200
scalar OsgEarthNet.uav[4] utilizationSecMission 29381.197218433
scalar OsgEarthNet.uav[4] utilizationSecMaintenance 16226.57844432
scalar OsgEarthNet.uav[4] utilizationSecCharge 167201.74581549
scalar OsgEarthNet.uav[4] utilizationSecIdle 46390.477521756
scalar OsgEarthNet.uav[4] utilizationEnergyMission 137435.08182526
scalar OsgEarthNet.uav[4] utilizationEnergyMaintenance 76819.557670593
scalar OsgEarthNet.uav[4] utilizationEnergyCharge 209764.04364014
scalar OsgEarthNet.uav[4] utilizationEnergyOverdrawMission 0
scalar OsgEarthNet.uav[4] utilizationEnergyOverdrawMaintenance 0
scalar OsgEarthNet.uav[4] utilizationCountMissions 46
scalar OsgEarthNet.uav[4] utilizationCountManeuversMission 484
scalar OsgEarthNet.uav[4] utilizationCountManeuversMaintenance 92
scalar OsgEarthNet.uav[4] utilizationCountChargeState 46
scalar OsgEarthNet.uav[4] utilizationCountOverdrawnAfterMission 0
scalar OsgEarthNet.uav[4] utilizationCountIdleState 46
scalar OsgEarthNet.uav[4] utilizationFail 0
scalar OsgEarthNet.uav[4] simulationTime 259200
scalar OsgEarthNet.uav[5] utilizationSecMission 28833.950779038
scalar OsgEarthNet.uav[5] utilizationSecMaintenance 15199.289229484
scalar OsgEarthNet.uav[5] utilizationSecCharge 162896.92216701
scalar OsgEarthNet.uav[5] utilizationSecIdle 52269.83682447
scalar OsgEarthNet.uav[5] utilizationEnergyMission 133098.70806503
scalar OsgEarthNet.uav[5] utilizationEnergyMaintenance 72423.728057861
scalar OsgEarthNet.uav[5] utilizationEnergyCharge 205254.94433594
scalar OsgEarthNet.uav[5] utilizationEnergyOverdrawMission 0
scalar OsgEarthNet.uav[5] utilizationEnergyOverdrawMaintenance 0
scalar OsgEarthNet.uav[5] utilizationCountMissions 44
scalar OsgEarthNet.uav[5] utilizationCountManeuversMission 466
scalar OsgEarthNet.uav[5] utilizationCountManeuversMaintenance 88
scalar OsgEarthNet.uav[5] utilizationCountChargeState 44
scalar OsgEarthNet.uav[5] utilizationCountOverdrawnAfterMission 0
scalar OsgEarthNet.uav[5] utilizationCountIdleState 44
scalar OsgEarthNet.uav[5] utilizationFail 0
scalar OsgEarthNet.uav[5] simulationTime 259200
scalar OsgEarthNet.uav[6] utilizationSecMission 29317.873723071
scalar OsgEarthNet.uav[6] utilizationSecMaintenance 14513.053179388
scalar OsgEarthNet.uav[6] utilizationSecCharge 162750
scalar OsgEarthNet.uav[6] utilizationSecIdle 52619.07209754
scalar OsgEarthNet.uav[6] utilizationEnergyMission 135512.4289856
scalar OsgEarthNet.uav[6] utilizationEnergyMaintenance 69036.374340057
scalar OsgEarthNet.uav[6] utilizationEnergyCharge 203819.09667969
scalar OsgEarthNet.uav[6] utilizationEnergyOverdrawMission 0
scalar OsgEarthNet.uav[6] utilizationEnergyOverdrawMaintenance 0
scalar OsgEarthNet.uav[6] utilizationCountMissions 44
scalar OsgEarthNet.uav[6] utilizationCountManeuversMission 475
scalar OsgEarthNet.uav[6] utilizationCountManeuversMaintenance 88
scalar OsgEarthNet.uav[6] utilizationCountChargeState 44
scalar OsgEarthNet.uav[6] utilizationCountOverdrawnAfterMission 0
scalar OsgEarthNet.uav[6] utilizationCountIdleState 45
scalar OsgEarthNet.uav[6] utilizationFail 0
scalar OsgEarthNet.uav[6] simulationTime 259200
scalar OsgEarthNet.uav[7] utilizationSecMission 28280.478512426
scalar OsgEarthNet.uav[7] utilizationSecMaintenance 17802.545622642
scalar OsgEarthNet.uav[7] utilizationSecCharge 168040.50004965
scalar OsgEarthNet.uav[7] utilizationSecIdle 45076.474815285
scalar OsgEarthNet.uav[7] utilizationEnergyMission 130688.88752747
scalar OsgEarthNet.uav[7] utilizationEnergyMaintenance 83321.005058289
scalar OsgEarthNet.uav[7] utilizationEnergyCharge 211370.94042969
scalar OsgEarthNet.uav[7] utilizationEnergyOverdrawMission 0
scalar OsgEarthNet.uav[7] utilizationEnergyOverdrawMaintenance 0
scalar OsgEarthNet.uav[7] utilizationCountMissions 46
scalar OsgEarthNet.uav[7] utilizationCountManeuversMission 484
scalar OsgEarthNet.uav[7] utilizationCountManeuversMaintenance 92
scalar OsgEarthNet.uav[7] utilizationCountChargeState 46
scalar OsgEarthNet.uav[7] utilizationCountOverdrawnAfterMission 0
scalar OsgEarthNet.uav[7] utilizationCountIdleState 46
scalar OsgEarthNet.uav[7] utilizationFail 0
scalar OsgEarthNet.uav[7] simulationTime 259200
scalar OsgEarthNet.uav[8] utilizationSecMission 29703.996230227
scalar OsgEarthNet.uav[8] utilizationSecMaintenance 17694.613690453
scalar OsgEarthNet.uav[8] utilizationSecCharge 171775.1472437
scalar OsgEarthNet.uav[8] utilizationSecIdle 40026.241835621
scalar OsgEarthNet.uav[8] utilizationEnergyMission 134970.46047211
scalar OsgEarthNet.uav[8] utilizationEnergyMaintenance 82464.251178741
scalar OsgEarthNet.uav[8] utilizationEnergyCharge 215721.32592773
scalar OsgEarthNet.uav[8] utilizationEnergyOverdrawMission 0
scalar OsgEarthNet.uav[8] utilizationEnergyOverdrawMaintenance 0
scalar OsgEarthNet.uav[8] utilizationCountMissions 47
scalar OsgEarthNet.uav[8] utilizationCountManeuversMission 485
scalar OsgEarthNet.uav[8] utilizationCountManeuversMaintenance 94
scalar OsgEarthNet.uav[8] utilizationCountChargeState 47
scalar OsgEarthNet.uav[8] utilizationCountOverdrawnAfterMission 0
scalar OsgEarthNet.uav[8] utilizationCountIdleState 47
scalar OsgEarthNet.uav[8] utilizationFail 0
scalar OsgEarthNet.uav[8] simulationTime 259200
scalar OsgEarthNet.uav[9] utilizationSecMission 29746.929995227
scalar OsgEarthNet.uav[9] utilizationSecMaintenance 15635.958079978
scalar OsgEarthNet.uav[9] utilizationSecCharge 163410
scalar OsgEarthNet.uav[9] utilizationSecIdle 50407.110924795
scalar OsgEarthNet.uav[9] utilizationEnergyMission 138103.5332489
scalar OsgEarthNet.uav[9] utilizationEnergyMaintenance 71749.895047398
scalar OsgEarthNet.uav[9] utilizationEnergyCharge 205051.3984375
scalar OsgEarthNet.uav[9] utilizationEnergyOverdrawMission 0
scalar OsgEarthNet.uav[9] utilizationEnergyOverdrawMaintenance 0
scalar OsgEarthNet.uav[9] utilizationCountMissions 45
scalar OsgEarthNet.uav[9] utilizationCountManeuversMission 491
scalar OsgEarthNet.uav[9] utilizationCountManeuversMaintenance 90
scalar OsgEarthNet.uav[9] utilizationCountChargeState 44
scalar OsgEarthNet.uav[9] utilizationCountOverdrawnAfterMission 0
scalar OsgEarthNet.uav[9] utilizationCountIdleState 45
scalar OsgEarthNet.uav[9] utilizationFail 0
scalar OsgEarthNet.uav[9] simulationTime 259200
scalar OsgEarthNet.uav[10] utilizationSecMission 17671.44370993
scalar OsgEarthNet.uav[10] utilizationSecMaintenance 8589.1721100783
scalar OsgEarthNet.uav[10] utilizationSecCharge 93484.1302768
scalar OsgEarthNet.uav[10] utilizationSecIdle 139455.25290319
scalar OsgEarthNet.uav[10] utilizationEnergyMission 81770.759872437
scalar OsgEarthNet.uav[10] utilizationEnergyMaintenance 39659.940357208
scalar OsgEarthNet.uav[10] utilizationEnergyCharge 117401.10449219
scalar OsgEarthNet.uav[10] utilizationEnergyOverdrawMission 0
scalar OsgEarthNet.uav[10] utilizationEnergyOverdrawMaintenance 0
scalar OsgEarthNet.uav[10] utilizationCountMissions 26
scalar OsgEarthNet.uav[10] utilizationCountManeuversMission 278
scalar OsgEarthNet.uav[10] utilizationCountManeuversMaintenance 52
scalar OsgEarthNet.uav[10] utilizationCountChargeState 26
scalar OsgEarthNet.uav[10] utilizationCountOverdrawnAfterMission 0
scalar OsgEarthNet.uav[10] utilizationCountIdleState 26
scalar OsgEarthNet.uav[10] utilizationFail 0
scalar OsgEarthNet.uav[10] simulationTime 259200
scalar OsgEarthNet.uav[11] utilizationSecMission 28275.187823807
scalar OsgEarthNet.uav[11] utilizationSecMaintenance 15959.822765733
scalar OsgEarthNet.uav[11] utilizationSecCharge 164650
scalar OsgEarthNet.uav[11] utilizationSecIdle 50314.98841046
scalar OsgEarthNet.uav[11] utilizationEnergyMission 130647.80812454
scalar OsgEarthNet.uav[11] utilizationEnergyMaintenance 74875.668651581
scalar OsgEarthNet.uav[11] utilizationEnergyCharge 205436.24829102
scalar OsgEarthNet.uav[11] utilizationEnergyOverdrawMission 0
scalar OsgEarthNet.uav[11] utilizationEnergyOverdrawMaintenance 0
scalar OsgEarthNet.uav[11] utilizationCountMissions 45
scalar OsgEarthNet.uav[11] utilizationCountManeuversMission 482
scalar OsgEarthNet.uav[11] utilizationCountManeuversMaintenance 90
scalar OsgEarthNet.uav[11] utilizationCountChargeState 45
scalar OsgEarthNet.uav[11] utilizationCountOverdrawnAfterMission 0
scalar OsgEarthNet.uav[11] utilizationCountIdleState 46
scalar OsgEarthNet.uav[11] utilizationFail 0
scalar OsgEarthNet.uav[11] simulationTime 259200
scalar OsgEarthNet.uav[12] utilizationSecMission 22339.380997511
scalar OsgEarthNet.uav[12] utilizationSecMaintenance 9659.5730995117
scalar OsgEarthNet.uav[12] utilizationSecCharge 119050
scalar OsgEarthNet.uav[12] utilizationSecIdle 108151.04490298
scalar OsgEarthNet.uav[12] utilizationEnergyMission 102401.293293
scalar OsgEarthNet.uav[12] utilizationEnergyMaintenance 46194.214935303
scalar OsgEarthNet.uav[12] utilizationEnergyCharge 149348.95410156
scalar OsgEarthNet.uav[12] utilizationEnergyOverdrawMission 0
scalar OsgEarthNet.uav[12] utilizationEnergyOverdrawMaintenance 0
scalar OsgEarthNet.uav[12] utilizationCountMissions 32
scalar OsgEarthNet.uav[12] utilizationCountManeuversMission 364
scalar OsgEarthNet.uav[12] utilizationCountManeuversMaintenance 64
scalar OsgEarthNet.uav[12] utilizationCountChargeState 32
scalar OsgEarthNet.uav[12] utilizationCountOverdrawnAfterMission 0
scalar OsgEarthNet.uav[12] utilizationCountIdleState 33
scalar OsgEarthNet.uav[12] utilizationFail 0
scalar OsgEarthNet.uav[12] simulationTime 259200
scalar OsgEarthNet.uav[13] utilizationSecMission 5693.4831571993
scalar OsgEarthNet.uav[13] utilizationSecMaintenance 2378.9021050675
scalar OsgEarthNet.uav[13] utilizationSecCharge 27456.195366626
scalar OsgEarthNet.uav[13] utilizationSecIdle 223671.41837111
scalar OsgEarthNet.uav[13] utilizationEnergyMission 26399.962310791
scalar OsgEarthNet.uav[13] utilizationEnergyMaintenance 11359.675994873
scalar OsgEarthNet.uav[13] utilizationEnergyCharge 35121.287597656
scalar OsgEarthNet.uav[13] utilizationEnergyOverdrawMission 0
scalar OsgEarthNet.uav[13] utilizationEnergyOverdrawMaintenance 0
scalar OsgEarthNet.uav[13] utilizationCountMissions 8
scalar OsgEarthNet.uav[13] utilizationCountManeuversMission 89
scalar OsgEarthNet.uav[13] utilizationCountManeuversMaintenance 16
scalar OsgEarthNet.uav[13] utilizationCountChargeState 8
scalar OsgEarthNet.uav[13] utilizationCountOverdrawnAfterMission 0
scalar OsgEarthNet.uav[13] utilizationCountIdleState 8
scalar OsgEarthNet.uav[13] utilizationFail 0
scalar OsgEarthNet.uav[13] simulationTime 259200
scalar OsgEarthNet.uav[14] utilizationSecMission 29452.780300223
scalar OsgEarthNet.uav[14] utilizationSecMaintenance 15026.869733733
scalar OsgEarthNet.uav[14] utilizationSecCharge 162670
scalar OsgEarthNet.uav[14] utilizationSecIdle 52050.348966044
scalar OsgEarthNet.uav[14] utilizationEnergyMission 135022.79383375
scalar OsgEarthNet.uav[14] utilizationEnergyMaintenance 70068.961151123
scalar OsgEarthNet.uav[14] utilizationEnergyCharge 203751.7668457
scalar OsgEarthNet.uav[14] utilizationEnergyOverdrawMission 0
scalar OsgEarthNet.uav[14] utilizationEnergyOverdrawMaintenance 0
scalar OsgEarthNet.uav[14] utilizationCountMissions 44
scalar OsgEarthNet.uav[14] utilizationCountManeuversMission 475
scalar OsgEarthNet.uav[14] utilizationCountManeuversMaintenance 89
scalar OsgEarthNet.uav[14] utilizationCountChargeState 44
scalar OsgEarthNet.uav[14] utilizationCountOverdrawnAfterMission 0
scalar OsgEarthNet.uav[14] utilizationCountIdleState 45
scalar OsgEarthNet.uav[14] utilizationFail 0
scalar OsgEarthNet.uav[14] simulationTime 259200
scalar OsgEarthNet.uav[15] utilizationSecMission 26331.305557663
scalar OsgEarthNet.uav[15] utilizationSecMaintenance 18268.020509042
scalar OsgEarthNet.uav[15] utilizationSecCharge 166015.21727668
scalar OsgEarthNet.uav[15] utilizationSecIdle 48585.45565662
scalar OsgEarthNet.uav[15] utilizationEnergyMission 122800.94458771
scalar OsgEarthNet.uav[15] utilizationEnergyMaintenance 85463.737159729
scalar OsgEarthNet.uav[15] utilizationEnergyCharge 208464.77978516
scalar OsgEarthNet.uav[15] utilizationEnergyOverdrawMission 0
scalar OsgEarthNet.uav[15] utilizationEnergyOverdrawMaintenance 0
scalar OsgEarthNet.uav[15] utilizationCountMissions 45
scalar OsgEarthNet.uav[15] utilizationCountManeuversMission 433
scalar OsgEarthNet.uav[15] utilizationCountManeuversMaintenance 90
scalar OsgEarthNet.uav[15] utilizationCountChargeState 45
scalar OsgEarthNet.uav[15] utilizationCountOverdrawnAfterMission 0
scalar OsgEarthNet.uav[15] utilizationCountIdleState 45
scalar OsgEarthNet.uav[15] utilizationFail 0
scalar OsgEarthNet.uav[15] simulationTime 259200
scalar OsgEarthNet.uav[16] utilizationSecMission 29858.683592161
scalar OsgEarthNet.uav[16] utilizationSecMaintenance 15845.529045215
scalar OsgEarthNet.uav[16] utilizationSecCharge 169534.27270167
scalar OsgEarthNet.uav[16] utilizationSecIdle 43961.51366095
scalar OsgEarthNet.uav[16] utilizationEnergyMission 138643.50590515
scalar OsgEarthNet.uav[16] utilizationEnergyMaintenance 74950.361251831
scalar OsgEarthNet.uav[16] utilizationEnergyCharge 213407.85986328
scalar OsgEarthNet.uav[16] utilizationEnergyOverdrawMission 0
scalar OsgEarthNet.uav[16] utilizationEnergyOverdrawMaintenance 0
scalar OsgEarthNet.uav[16] utilizationCountMissions 46
scalar OsgEarthNet.uav[16] utilizationCountManeuversMission 503
scalar OsgEarthNet.uav[16] utilizationCountManeuversMaintenance 92
scalar OsgEarthNet.uav[16] utilizationCountChargeState 46
scalar OsgEarthNet.uav[16] utilizationCountOverdrawnAfterMission 0
scalar OsgEarthNet.uav[16] utilizationCountIdleState 46
scalar OsgEarthNet.uav[16] utilizationFail 0
scalar OsgEarthNet.uav[16] simulationTime 259200
scalar OsgEarthNet.uav[17] utilizationSecMission 28701.723996317
scalar OsgEarthNet.uav[17] utilizationSecMaintenance 15784.438677353
scalar OsgEarthNet.uav[17] utilizationSecCharge 162959.48465858
scalar OsgEarthNet.uav[17] utilizationSecIdle 51754.351667754
scalar OsgEarthNet.uav[17] utilizationEnergyMission 133552.73316956
scalar OsgEarthNet.uav[17] utilizationEnergyMaintenance 74777.562088013
scalar OsgEarthNet.uav[17] utilizationEnergyCharge 205970.7668457
scalar OsgEarthNet.uav[17] utilizationEnergyOverdrawMission 0
scalar OsgEarthNet.uav[17] utilizationEnergyOverdrawMaintenance 0
scalar OsgEarthNet.uav[17] utilizationCountMissions 44
scalar OsgEarthNet.uav[17] utilizationCountManeuversMission 488
scalar OsgEarthNet.uav[17] utilizationCountManeuversMaintenance 88
scalar OsgEarthNet.uav[17] utilizationCountChargeState 44
scalar OsgEarthNet.uav[17] utilizationCountOverdrawnAfterMission 0
scalar OsgEarthNet.uav[17] utilizationCountIdleState 44
scalar OsgEarthNet.uav[17] utilizationFail 0
scalar OsgEarthNet.uav[17] simulationTime 259200
scalar OsgEarthNet.uav[18] utilizationSecMission 30440.327597356
scalar OsgEarthNet.uav[18] utilizationSecMaintenance 14786.623532358
scalar OsgEarthNet.uav[18] utilizationSecCharge 166051.59490835
scalar OsgEarthNet.uav[18] utilizationSecIdle 47921.452961934
scalar OsgEarthNet.uav[18] utilizationEnergyMission 140723.70132446
scalar OsgEarthNet.uav[18] utilizationEnergyMaintenance 69376.826789856
scalar OsgEarthNet.uav[18] utilizationEnergyCharge 209566.32543945
scalar OsgEarthNet.uav[18] utilizationEnergyOverdrawMission 0
scalar OsgEarthNet.uav[18] utilizationEnergyOverdrawMaintenance 0
scalar OsgEarthNet.uav[18] utilizationCountMissions 45
scalar OsgEarthNet.uav[18] utilizationCountManeuversMission 481
scalar OsgEarthNet.uav[18] utilizationCountManeuversMaintenance 90
scalar OsgEarthNet.uav[18] utilizationCountChargeState 45
scalar OsgEarthNet.uav[18] utilizationCountOverdrawnAfterMission 0
scalar OsgEarthNet.uav[18] utilizationCountIdleState 45
scalar OsgEarthNet.uav[18] utilizationFail 0
scalar OsgEarthNet.uav[18] simulationTime 259200
scalar OsgEarthNet.uav[19] utilizationSecMission 6952.514788876
scalar OsgEarthNet.uav[19] utilizationSecMaintenance 4104.4755272919
scalar OsgEarthNet.uav[19] utilizationSecCharge 40760
scalar OsgEarthNet.uav[19] utilizationSecIdle 207383.00868383
scalar OsgEarthNet.uav[19] utilizationEnergyMission 32057.270835876
scalar OsgEarthNet.uav[19] utilizationEnergyMaintenance 19402.46472168
scalar OsgEarthNet.uav[19] utilizationEnergyCharge 51039.975097656
scalar OsgEarthNet.uav[19] utilizationEnergyOverdrawMission 0
scalar OsgEarthNet.uav[19] utilizationEnergyOverdrawMaintenance 0
scalar OsgEarthNet.uav[19] utilizationCountMissions 11
scalar OsgEarthNet.uav[19] utilizationCountManeuversMission 112
scalar OsgEarthNet.uav[19] utilizationCountManeuversMaintenance 22
scalar OsgEarthNet.uav[19] utilizationCountChargeState 11
scalar OsgEarthNet.uav[19] utilizationCountOverdrawnAfterMission 0
scalar OsgEarthNet.uav[19] utilizationCountIdleState 12
scalar OsgEarthNet.uav[19] utilizationFail 0
scalar OsgEarthNet.uav[19] simulationTime 259200
scalar OsgEarthNet.uav[20] utilizationSecMission 2848.7699938364
scalar OsgEarthNet.uav[20] utilizationSecMaintenance 1118.660277951
scalar OsgEarthNet.uav[20] utilizationSecCharge 14530
scalar OsgEarthNet.uav[20] utilizationSecIdle 240702.56872821
scalar OsgEarthNet.uav[20] utilizationEnergyMission 12866.421173096
scalar OsgEarthNet.uav[20] utilizationEnergyMaintenance 5265.9339256287
scalar OsgEarthNet.uav[20] utilizationEnergyCharge 18091.992675781
scalar OsgEarthNet.uav[20] utilizationEnergyOverdrawMission 0
scalar OsgEarthNet.uav[20] utilizationEnergyOverdrawMaintenance 0
scalar OsgEarthNet.uav[20] utilizationCountMissions 4
scalar OsgEarthNet.uav[20] utilizationCountManeuversMission 45
scalar OsgEarthNet.uav[20] utilizationCountManeuversMaintenance 8
scalar OsgEarthNet.uav[20] utilizationCountChargeState 4
scalar OsgEarthNet.uav[20] utilizationCountOverdrawnAfterMission 0
scalar OsgEarthNet.uav[20] utilizationCountIdleState 5
scalar OsgEarthNet.uav[20] utilizationFail 0
scalar OsgEarthNet.uav[20] simulationTime 259200
scalar OsgEarthNet.uav[21] utilizationSecMission 26688.015883688
scalar OsgEarthNet.uav[21] utilizationSecMaintenance 18408.899758282
scalar OsgEarthNet.uav[21] utilizationSecCharge 165120
scalar OsgEarthNet.uav[21] utilizationSecIdle 48983.08335803
scalar OsgEarthNet.uav[21] utilizationEnergyMission 121995.10530853
scalar OsgEarthNet.uav[21] utilizationEnergyMaintenance 85822.397294956
scalar OsgEarthNet.uav[21] utilizationEnergyCharge 206149.3359375
scalar OsgEarthNet.uav[21] utilizationEnergyOverdrawMission 0
scalar OsgEarthNet.uav[21] utilizationEnergyOverdrawMaintenance 0
scalar OsgEarthNet.uav[21] utilizationCountMissions 45
scalar OsgEarthNet.uav[21] utilizationCountManeuversMission 440
scalar OsgEarthNet.uav[21] utilizationCountManeuversMaintenance 91
scalar OsgEarthNet.uav[21] utilizationCountChargeState 45
scalar OsgEarthNet.uav[21] utilizationCountOverdrawnAfterMission 0
scalar OsgEarthNet.uav[21] utilizationCountIdleState 46
scalar OsgEarthNet.uav[21] utilizationFail 0
scalar OsgEarthNet.uav[21] simulationTime 259200
scalar OsgEarthNet.uav[22] utilizationSecMission 24787.207590936
scalar OsgEarthNet.uav[22] utilizationSecMaintenance 9551.8566301533
scalar OsgEarthNet.uav[22] utilizationSecCharge 122834.9115065
scalar OsgEarthNet.uav[22] utilizationSecIdle 102026.02327241
scalar OsgEarthNet.uav[22] utilizationEnergyMission 113450.35803223
scalar OsgEarthNet.uav[22] utilizationEnergyMaintenance 44160.275745392
scalar OsgEarthNet.uav[22] utilizationEnergyCharge 154352.23718262
scalar OsgEarthNet.uav[22] utilizationEnergyOverdrawMission 0
scalar OsgEarthNet.uav[22] utilizationEnergyOverdrawMaintenance 0
scalar OsgEarthNet.uav[22] utilizationCountMissions 34
scalar OsgEarthNet.uav[22] utilizationCountManeuversMission 398
scalar OsgEarthNet.uav[22] utilizationCountManeuversMaintenance 68
scalar OsgEarthNet.uav[22] utilizationCountChargeState 34
scalar OsgEarthNet.uav[22] utilizationCountOverdrawnAfterMission 0
scalar OsgEarthNet.uav[22] utilizationCountIdleState 34
scalar OsgEarthNet.uav[22] utilizationFail 0
scalar OsgEarthNet.uav[22] simulationTime 259200
scalar OsgEarthNet.uav[23] utilizationSecMission 623.68863475643
scalar OsgEarthNet.uav[23] utilizationSecMaintenance 394.94199877579
scalar OsgEarthNet.uav[23] utilizationSecCharge 3810
scalar OsgEarthNet.uav[23] utilizationSecIdle 254371.36836647
scalar OsgEarthNet.uav[23] utilizationEnergyMission 2960.8111877441
scalar OsgEarthNet.uav[23] utilizationEnergyMaintenance 1869.32787323
scalar OsgEarthNet.uav[23] utilizationEnergyCharge 4827.0141601562
scalar OsgEarthNet.uav[23] utilizationEnergyOverdrawMission 0
scalar OsgEarthNet.uav[23] utilizationEnergyOverdrawMaintenance 0
scalar OsgEarthNet.uav[23] utilizationCountMissions 1
scalar OsgEarthNet.uav[23] utilizationCountManeuversMission 10
scalar OsgEarthNet.uav[23] utilizationCountManeuversMaintenance 2
scalar OsgEarthNet.uav[23] utilizationCountChargeState 1
scalar OsgEarthNet.uav[23] utilizationCountOverdrawnAfterMission 0
scalar OsgEarthNet.uav[23] utilizationCountIdleState 2
scalar OsgEarthNet.uav[23] utilizationFail 0
scalar OsgEarthNet.uav[23] simulationTime 259200
scalar OsgEarthNet.uav[24] utilizationSecMission 30356.698400234
scalar OsgEarthNet.uav[24] utilizationSecMaintenance 15424.415926583
scalar OsgEarthNet.uav[24] utilizationSecCharge 167836.55093309
scalar OsgEarthNet.uav[24] utilizationSecIdle 45582.333740098
scalar OsgEarthNet.uav[24] utilizationEnergyMission 139983.519104
scalar OsgEarthNet.uav[24] utilizationEnergyMaintenance 72075.381599426
scalar OsgEarthNet.uav[24] utilizationEnergyCharge 211446.57910156
scalar OsgEarthNet.uav[24] utilizationEnergyOverdrawMission 0
scalar OsgEarthNet.uav[24] utilizationEnergyOverdrawMaintenance 0
scalar OsgEarthNet.uav[24] utilizationCountMissions 45
scalar OsgEarthNet.uav[24] utilizationCountManeuversMission 491
scalar OsgEarthNet.uav[24] utilizationCountManeuversMaintenance 90
scalar OsgEarthNet.uav[24] utilizationCountChargeState 45
scalar OsgEarthNet.uav[24] utilizationCountOverdrawnAfterMission 0
scalar OsgEarthNet.uav[24] utilizationCountIdleState 45
scalar OsgEarthNet.uav[24] utilizationFail 0
scalar OsgEarthNet.uav[24] simulationTime 259200
scalar OsgEarthNet.uav[25] utilizationSecMission 28047.657460995
scalar OsgEarthNet.uav[25] utilizationSecMaintenance 15884.507213595
scalar OsgEarthNet.uav[25] utilizationSecCharge 161017.1262651
scalar OsgEarthNet.uav[25] utilizationSecIdle 54250.708060307
scalar OsgEarthNet.uav[25] utilizationEnergyMission 129297.55251312
scalar OsgEarthNet.uav[25] utilizationEnergyMaintenance 74415.900836945
scalar OsgEarthNet.uav[25] utilizationEnergyCharge 202782.51757812
scalar OsgEarthNet.uav[25] utilizationEnergyOverdrawMission 0
scalar OsgEarthNet.uav[25] utilizationEnergyOverdrawMaintenance 0
scalar OsgEarthNet.uav[25] utilizationCountMissions 44
scalar OsgEarthNet.uav[25] utilizationCountManeuversMission 456
scalar OsgEarthNet.uav[25] utilizationCountManeuversMaintenance 88
scalar OsgEarthNet.uav[25] utilizationCountChargeState 44
scalar OsgEarthNet.uav[25] utilizationCountOverdrawnAfterMission 0
scalar OsgEarthNet.uav[25] utilizationCountIdleState 44
scalar OsgEarthNet.uav[25] utilizationFail 0
scalar OsgEarthNet.uav[25] simulationTime 259200
scalar OsgEarthNet.uav[26] utilizationSecMission 702.6942798579
scalar OsgEarthNet.uav[26] utilizationSecMaintenance 282.29565405678
scalar OsgEarthNet.uav[26] utilizationSecCharge 3730
scalar OsgEarthNet.uav[26] utilizationSecIdle 254485.00906609
scalar OsgEarthNet.uav[26] utilizationEnergyMission 3287.0358123779
scalar OsgEarthNet.uav[26] utilizationEnergyMaintenance 1450.3148612976
scalar OsgEarthNet.uav[26] utilizationEnergyCharge 4737.3486328125
scalar OsgEarthNet.uav[26] utilizationEnergyOverdrawMission 0
scalar OsgEarthNet.uav[26] utilizationEnergyOverdrawMaintenance 0
scalar OsgEarthNet.uav[26] utilizationCountMissions 1
scalar OsgEarthNet.uav[26] utilizationCountManeuversMission 10
scalar OsgEarthNet.uav[26] utilizationCountManeuversMaintenance 2
scalar OsgEarthNet.uav[26] utilizationCountChargeState 1
scalar OsgEarthNet.uav[26] utilizationCountOverdrawnAfterMission 0
scalar OsgEarthNet.uav[26] utilizationCountIdleState 2
scalar OsgEarthNet.uav[26] utilizationFail 0
scalar OsgEarthNet.uav[26] simulationTime 259200
scalar OsgEarthNet.uav[27] utilizationSecMission 31056.565123186
scalar OsgEarthNet.uav[27] utilizationSecMaintenance 15641.433369431
scalar OsgEarthNet.uav[27] utilizationSecCharge 169940
scalar OsgEarthNet.uav[27] utilizationSecIdle 42562.000507383
scalar OsgEarthNet.uav[27] utilizationEnergyMission 143637.58179626
scalar OsgEarthNet.uav[27] utilizationEnergyMaintenance 73299.413211823
scalar OsgEarthNet.uav[27] utilizationEnergyCharge 212899.37255859
scalar OsgEarthNet.uav[27] utilizationEnergyOverdrawMission 0
scalar OsgEarthNet.uav[27] utilizationEnergyOverdrawMaintenance 0
scalar OsgEarthNet.uav[27] utilizationCountMissions 46
scalar OsgEarthNet.uav[27] utilizationCountManeuversMission 513
scalar OsgEarthNet.uav[27] utilizationCountManeuversMaintenance 93
scalar OsgEarthNet.uav[27] utilizationCountChargeState 46
scalar OsgEarthNet.uav[27] utilizationCountOverdrawnAfterMission 0
scalar OsgEarthNet.uav[27] utilizationCountIdleState 47
scalar OsgEarthNet.uav[27] utilizationFail 0
scalar OsgEarthNet.uav[27] simulationTime 259200
scalar OsgEarthNet.uav[28] utilizationSecMission 30238.723322911
scalar OsgEarthNet.uav[28] utilizationSecMaintenance 15728.630692622
scalar OsgEarthNet.uav[28] utilizationSecCharge 170250
scalar OsgEarthNet.uav[28] utilizationSecIdle 42982.644984468
scalar OsgEarthNet.uav[28] utilizationEnergyMission 139832.5635643
scalar OsgEarthNet.uav[28] utilizationEnergyMaintenance 73289.004566193
scalar OsgEarthNet.uav[28] utilizationEnergyCharge 213316.36743164
scalar OsgEarthNet.uav[28] utilizationEnergyOverdrawMission 0
scalar OsgEarthNet.uav[28] utilizationEnergyOverdrawMaintenance 0
scalar OsgEarthNet.uav[28] utilizationCountMissions 46
scalar OsgEarthNet.uav[28] utilizationCountManeuversMission 497
scalar OsgEarthNet.uav[28] utilizationCountManeuversMaintenance 92
scalar OsgEarthNet.uav[28] utilizationCountChargeState 46
scalar OsgEarthNet.uav[28] utilizationCountOverdrawnAfterMission 0
scalar OsgEarthNet.uav[28] utilizationCountIdleState 47
scalar OsgEarthNet.uav[28] utilizationFail 0
scalar OsgEarthNet.uav[28] simulationTime 259200
scalar OsgEarthNet.uav[29] utilizationSecMission 23321.545515433
scalar OsgEarthNet.uav[29] utilizationSecMaintenance 10934.914809787
scalar OsgEarthNet.uav[29] utilizationSecCharge 125380.48948505
scalar OsgEarthNet.uav[29] utilizationSecIdle 99563.049189727
scalar OsgEarthNet.uav[29] utilizationEnergyMission 107312.43347931
scalar OsgEarthNet.uav[29] utilizationEnergyMaintenance 51171.591007233
scalar OsgEarthNet.uav[29] utilizationEnergyCharge 158399.94482422
scalar OsgEarthNet.uav[29] utilizationEnergyOverdrawMission 0
scalar OsgEarthNet.uav[29] utilizationEnergyOverdrawMaintenance 0
scalar OsgEarthNet.uav[29] utilizationCountMissions 34
scalar OsgEarthNet.uav[29] utilizationCountManeuversMission 376
scalar OsgEarthNet.uav[29] utilizationCountManeuversMaintenance 68
scalar OsgEarthNet.uav[29] utilizationCountChargeState 34
scalar OsgEarthNet.uav[29] utilizationCountOverdrawnAfterMission 0
scalar OsgEarthNet.uav[29] utilizationCountIdleState 34
scalar OsgEarthNet.uav[29] utilizationFail 0
scalar OsgEarthNet.uav[29] simulationTime 259200
scalar OsgEarthNet.uav[30] utilizationSecMission 15900.052310004
scalar OsgEarthNet.uav[30] utilizationSecMaintenance 7176.3687434768
scalar OsgEarthNet.uav[30] utilizationSecCharge 85700
scalar OsgEarthNet.uav[30] utilizationSecIdle 150423.57794652
scalar OsgEarthNet.uav[30] utilizationEnergyMission 73962.125862122
scalar OsgEarthNet.uav[30] utilizationEnergyMaintenance 33797.01651001
scalar OsgEarthNet.uav[30] utilizationEnergyCharge 107717.81835938
scalar OsgEarthNet.uav[30] utilizationEnergyOverdrawMission 0
scalar OsgEarthNet.uav[30] utilizationEnergyOverdrawMaintenance 0
scalar OsgEarthNet.uav[30] utilizationCountMissions 23
scalar OsgEarthNet.uav[30] utilizationCountManeuversMission 253
scalar OsgEarthNet.uav[30] utilizationCountManeuversMaintenance 46
scalar OsgEarthNet.uav[30] utilizationCountChargeState 23
scalar OsgEarthNet.uav[30] utilizationCountOverdrawnAfterMission 0
scalar OsgEarthNet.uav[30] utilizationCountIdleState 24
scalar OsgEarthNet.uav[30] utilizationFail 0
scalar OsgEarthNet.uav[30] simulationTime 259200
scalar OsgEarthNet.uav[31] utilizationSecMission 30218.214647032
scalar OsgEarthNet.uav[31] utilizationSecMaintenance 15994.690028258
scalar OsgEarthNet.uav[31] utilizationSecCharge 170707.08638663
scalar OsgEarthNet.uav[31] utilizationSecIdle 42280.007938076
scalar OsgEarthNet.uav[31] utilizationEnergyMission 139695.11064148
scalar OsgEarthNet.uav[31] utilizationEnergyMaintenance 74918.781269074
scalar OsgEarthNet.uav[31] utilizationEnergyCharge 214680.20410156
scalar OsgEarthNet.uav[31] utilizationEnergyOverdrawMission 0
scalar OsgEarthNet.uav[31] utilizationEnergyOverdrawMaintenance 0
scalar OsgEarthNet.uav[31] utilizationCountMissions 46
scalar OsgEarthNet.uav[31] utilizationCountManeuversMission 492
scalar OsgEarthNet.uav[31] utilizationCountManeuversMaintenance 92
scalar OsgEarthNet.uav[31] utilizationCountChargeState 46
scalar OsgEarthNet.uav[31] utilizationCountOverdrawnAfterMission 0
scalar OsgEarthNet.uav[31] utilizationCountIdleState 46
scalar OsgEarthNet.uav[31] utilizationFail 0
scalar OsgEarthNet.uav[31] simulationTime 259200
scalar OsgEarthNet.uav[32] utilizationSecMission 29938.100513812
scalar OsgEarthNet.uav[32] utilizationSecMaintenance 15329.449410123
scalar OsgEarthNet.uav[32] utilizationSecCharge 166990
scalar OsgEarthNet.uav[32] utilizationSecIdle 46942.449076065
scalar OsgEarthNet.uav[32] utilizationEnergyMission 138874.91562653
scalar OsgEarthNet.uav[32] utilizationEnergyMaintenance 71052.767421722
scalar OsgEarthNet.uav[32] utilizationEnergyCharge 209577.66210938
scalar OsgEarthNet.uav[32] utilizationEnergyOverdrawMission 0
scalar OsgEarthNet.uav[32] utilizationEnergyOverdrawMaintenance 0
scalar OsgEarthNet.uav[32] utilizationCountMissions 45
scalar OsgEarthNet.uav[32] utilizationCountManeuversMission 485
scalar OsgEarthNet.uav[32] utilizationCountManeuversMaintenance 90
scalar OsgEarthNet.uav[32] utilizationCountChargeState 45
scalar OsgEarthNet.uav[32] utilizationCountOverdrawnAfterMission 0
scalar OsgEarthNet.uav[32] utilizationCountIdleState 46
scalar OsgEarthNet.uav[32] utilizationFail 0
scalar OsgEarthNet.uav[32] simulationTime 259200
scalar OsgEarthNet.uav[33] utilizationSecMission 30132.40189236
scalar OsgEarthNet.uav[33] utilizationSecMaintenance 15815.457294496
scalar OsgEarthNet.uav[33] utilizationSecCharge 166910
scalar OsgEarthNet.uav[33] utilizationSecIdle 46342.139813144
scalar OsgEarthNet.uav[33] utilizationEnergyMission 137430.38257295
scalar OsgEarthNet.uav[33] utilizationEnergyMaintenance 74751.058189392
scalar OsgEarthNet.uav[33] utilizationEnergyCharge 209493.43457031
scalar OsgEarthNet.uav[33] utilizationEnergyOverdrawMission 0
scalar OsgEarthNet.uav[33] utilizationEnergyOverdrawMaintenance 0
scalar OsgEarthNet.uav[33] utilizationCountMissions 45
scalar OsgEarthNet.uav[33] utilizationCountManeuversMission 490
scalar OsgEarthNet.uav[33] utilizationCountManeuversMaintenance 91
scalar OsgEarthNet.uav[33] utilizationCountChargeState 45
scalar OsgEarthNet.uav[33] utilizationCountOverdrawnAfterMission 0
scalar OsgEarthNet.uav[33] utilizationCountIdleState 46
scalar OsgEarthNet.uav[33] utilizationFail 0
scalar OsgEarthNet.uav[33] simulationTime 259200
scalar OsgEarthNet.uav[34] utilizationSecMission 31219.348101891
scalar OsgEarthNet.uav[34] utilizationSecMaintenance 15140.201772128
scalar OsgEarthNet.uav[34] utilizationSecCharge 169316.69113582
scalar OsgEarthNet.uav[34] utilizationSecIdle 43523.757990159
scalar OsgEarthNet.uav[34] utilizationEnergyMission 143562.16433716
scalar OsgEarthNet.uav[34] utilizationEnergyMaintenance 71251.661624908
scalar OsgEarthNet.uav[34] utilizationEnergyCharge 213383.97509766
scalar OsgEarthNet.uav[34] utilizationEnergyOverdrawMission 0
scalar OsgEarthNet.uav[34] utilizationEnergyOverdrawMaintenance 0
scalar OsgEarthNet.uav[34] utilizationCountMissions 46
scalar OsgEarthNet.uav[34] utilizationCountManeuversMission 504
scalar OsgEarthNet.uav[34] utilizationCountManeuversMaintenance 92
scalar OsgEarthNet.uav[34] utilizationCountChargeState 46
scalar OsgEarthNet.uav[34] utilizationCountOverdrawnAfterMission 0
scalar OsgEarthNet.uav[34] utilizationCountIdleState 46
scalar OsgEarthNet.uav[34] utilizationFail 0
scalar OsgEarthNet.uav[34] simulationTime 259200
scalar OsgEarthNet.uav[35] utilizationSecMission 28742.431190875
scalar OsgEarthNet.uav[35] utilizationSecMaintenance 17000.189905445
scalar OsgEarthNet.uav[35] utilizationSecCharge 168650.93033121
scalar OsgEarthNet.uav[35] utilizationSecIdle 44806.447572472
scalar OsgEarthNet.uav[35] utilizationEnergyMission 132448.42111206
scalar OsgEarthNet.uav[35] utilizationEnergyMaintenance 80549.01922226
scalar OsgEarthNet.uav[35] utilizationEnergyCharge 212844.62304688
scalar OsgEarthNet.uav[35] utilizationEnergyOverdrawMission 0
scalar OsgEarthNet.uav[35] utilizationEnergyOverdrawMaintenance 0
scalar OsgEarthNet.uav[35] utilizationCountMissions 45
scalar OsgEarthNet.uav[35] utilizationCountManeuversMission 477
scalar OsgEarthNet.uav[35] utilizationCountManeuversMaintenance 90
scalar OsgEarthNet.uav[35] utilizationCountChargeState 45
scalar OsgEarthNet.uav[35] utilizationCountOverdrawnAfterMission 0
scalar OsgEarthNet.uav[35] utilizationCountIdleState 45
scalar OsgEarthNet.uav[35] utilizationFail 0
scalar OsgEarthNet.uav[35] simulationTime 259200
scalar OsgEarthNet.uav[36] utilizationSecMission 31821.95116078
scalar OsgEarthNet.uav[36] utilizationSecMaintenance 15871.550042684
scalar OsgEarthNet.uav[36] utilizationSecCharge 173134.49779654
scalar OsgEarthNet.uav[36] utilizationSecIdle 38372
scalar OsgEarthNet.uav[36] utilizationEnergyMission 147454.83997868
scalar OsgEarthNet.uav[36] utilizationEnergyMaintenance 73207.610340118
scalar OsgEarthNet.uav[36] utilizationEnergyCharge 218026.78295898
scalar OsgEarthNet.uav[36] utilizationEnergyOverdrawMission 0
scalar OsgEarthNet.uav[36] utilizationEnergyOverdrawMaintenance 0
scalar OsgEarthNet.uav[36] utilizationCountMissions 47
scalar OsgEarthNet.uav[36] utilizationCountManeuversMission 518
scalar OsgEarthNet.uav[36] utilizationCountManeuversMaintenance 93
scalar OsgEarthNet.uav[36] utilizationCountChargeState 47
scalar OsgEarthNet.uav[36] utilizationCountOverdrawnAfterMission 0
scalar OsgEarthNet.uav[36] utilizationCountIdleState 47
scalar OsgEarthNet.uav[36] utilizationFail 0
scalar OsgEarthNet.uav[36] simulationTime 259200
scalar OsgEarthNet.uav[37] utilizationSecMission 28185.584454068
scalar OsgEarthNet.uav[37] utilizationSecMaintenance 17575.972548892
scalar OsgEarthNet.uav[37] utilizationSecCharge 169940
scalar OsgEarthNet.uav[37] utilizationSecIdle 43498.44199704
scalar OsgEarthNet.uav[37] utilizationEnergyMission 130417.70432281
scalar OsgEarthNet.uav[37] utilizationEnergyMaintenance 82311.287128449
scalar OsgEarthNet.uav[37] utilizationEnergyCharge 212797.1953125
scalar OsgEarthNet.uav[37] utilizationEnergyOverdrawMission 0
scalar OsgEarthNet.uav[37] utilizationEnergyOverdrawMaintenance 0
scalar OsgEarthNet.uav[37] utilizationCountMissions 46
scalar OsgEarthNet.uav[37] utilizationCountManeuversMission 466
scalar OsgEarthNet.uav[37] utilizationCountManeuversMaintenance 92
scalar OsgEarthNet.uav[37] utilizationCountChargeState 46
scalar OsgEarthNet.uav[37] utilizationCountOverdrawnAfterMission 0
scalar OsgEarthNet.uav[37] utilizationCountIdleState 47
scalar OsgEarthNet.uav[37] utilizationFail 0
scalar OsgEarthNet.uav[37] simulationTime 259200
scalar OsgEarthNet.uav[38] utilizationSecMission 30067.511637835
scalar OsgEarthNet.uav[38] utilizationSecMaintenance 17809.287393494
scalar OsgEarthNet.uav[38] utilizationSecCharge 173201.19996867
scalar OsgEarthNet.uav[38] utilizationSecIdle 38122
scalar OsgEarthNet.uav[38] utilizationEnergyMission 139530.07719517
scalar OsgEarthNet.uav[38] utilizationEnergyMaintenance 82577.411636353
scalar OsgEarthNet.uav[38] utilizationEnergyCharge 216977.66647339
scalar OsgEarthNet.uav[38] utilizationEnergyOverdrawMission 0
scalar OsgEarthNet.uav[38] utilizationEnergyOverdrawMaintenance 0
scalar OsgEarthNet.uav[38] utilizationCountMissions 48
scalar OsgEarthNet.uav[38] utilizationCountManeuversMission 487
scalar OsgEarthNet.uav[38] utilizationCountManeuversMaintenance 95
scalar OsgEarthNet.uav[38] utilizationCountChargeState 48
scalar OsgEarthNet.uav[38] utilizationCountOverdrawnAfterMission 0
scalar OsgEarthNet.uav[38] utilizationCountIdleState 48
scalar OsgEarthNet.uav[38] utilizationFail 0
scalar OsgEarthNet.uav[38] simulationTime 259200
scalar OsgEarthNet.uav[39] utilizationSecMission 25708.800511175
scalar OsgEarthNet.uav[39] utilizationSecMaintenance 12416.774273479
scalar OsgEarthNet.uav[39] utilizationSecCharge 140412.22673545
scalar OsgEarthNet.uav[39] utilizationSecIdle 80662.197479897
scalar OsgEarthNet.uav[39] utilizationEnergyMission 118320.03796768
scalar OsgEarthNet.uav[39] utilizationEnergyMaintenance 58715.608402252
scalar OsgEarthNet.uav[39] utilizationEnergyCharge 176624.08349609
scalar OsgEarthNet.uav[39] utilizationEnergyOverdrawMission 0
scalar OsgEarthNet.uav[39] utilizationEnergyOverdrawMaintenance 0
scalar OsgEarthNet.uav[39] utilizationCountMissions 38
scalar OsgEarthNet.uav[39] utilizationCountManeuversMission 414
scalar OsgEarthNet.uav[39] utilizationCountManeuversMaintenance 76
scalar OsgEarthNet.uav[39] utilizationCountChargeState 38
scalar OsgEarthNet.uav[39] utilizationCountOverdrawnAfterMission 0
scalar OsgEarthNet.uav[39] utilizationCountIdleState 37
scalar OsgEarthNet.uav[39] utilizationFail 0
scalar OsgEarthNet.uav[39] simulationTime 259200
scalar OsgEarthNet.uav[40] utilizationSecMission 28714.025732436
scalar OsgEarthNet.uav[40] utilizationSecMaintenance 15693.648740847
scalar OsgEarthNet.uav[40] utilizationSecCharge 165040
scalar OsgEarthNet.uav[40] utilizationSecIdle 49752.324526717
scalar OsgEarthNet.uav[40] utilizationEnergyMission 133565.86820602
scalar OsgEarthNet.uav[40] utilizationEnergyMaintenance 74361.139480591
scalar OsgEarthNet.uav[40] utilizationEnergyCharge 207761.609375
scalar OsgEarthNet.uav[40] utilizationEnergyOverdrawMission 0
scalar OsgEarthNet.uav[40] utilizationEnergyOverdrawMaintenance 0
scalar OsgEarthNet.uav[40] utilizationCountMissions 44
scalar OsgEarthNet.uav[40] utilizationCountManeuversMission 477
scalar OsgEarthNet.uav[40] utilizationCountManeuversMaintenance 88
scalar OsgEarthNet.uav[40] utilizationCountChargeState 44
scalar OsgEarthNet.uav[40] utilizationCountOverdrawnAfterMission 0
scalar OsgEarthNet.uav[40] utilizationCountIdleState 45
scalar OsgEarthNet.uav[40] utilizationFail 0
scalar OsgEarthNet.uav[40] simulationTime 259200
scalar OsgEarthNet.uav[41] utilizationSecMission 30743.711224304
scalar OsgEarthNet.uav[41] utilizationSecMaintenance 16940.187711758
scalar OsgEarthNet.uav[41] utilizationSecCharge 174890
scalar OsgEarthNet.uav[41] utilizationSecIdle 36626.100063938
scalar OsgEarthNet.uav[41] utilizationEnergyMission 140678.49463272
scalar OsgEarthNet.uav[41] utilizationEnergyMaintenance 79055.066883087
scalar OsgEarthNet.uav[41] utilizationEnergyCharge 219623.98876953
scalar OsgEarthNet.uav[41] utilizationEnergyOverdrawMission 0
scalar OsgEarthNet.uav[41] utilizationEnergyOverdrawMaintenance 0
scalar OsgEarthNet.uav[41] utilizationCountMissions 47
scalar OsgEarthNet.uav[41] utilizationCountManeuversMission 498
scalar OsgEarthNet.uav[41] utilizationCountManeuversMaintenance 93
scalar OsgEarthNet.uav[41] utilizationCountChargeState 47
scalar OsgEarthNet.uav[41] utilizationCountOverdrawnAfterMission 0
scalar OsgEarthNet.uav[41] utilizationCountIdleState 47
scalar OsgEarthNet.uav[41] utilizationFail 0
scalar OsgEarthNet.uav[41] simulationTime 259200
scalar OsgEarthNet.uav[42] utilizationSecMission 32335.137151926
scalar OsgEarthNet.uav[42] utilizationSecMaintenance 15097.557710216
scalar OsgEarthNet.uav[42] utilizationSecCharge 171175.30413786
scalar OsgEarthNet.uav[42] utilizationSecIdle 40592
scalar OsgEarthNet.uav[42] utilizationEnergyMission 149144.77994933
scalar OsgEarthNet.uav[42] utilizationEnergyMaintenance 70135.985645294
scalar OsgEarthNet.uav[42] utilizationEnergyCharge 215911.375
scalar OsgEarthNet.uav[42] utilizationEnergyOverdrawMission 0
scalar OsgEarthNet.uav[42] utilizationEnergyOverdrawMaintenance 0
scalar OsgEarthNet.uav[42] utilizationCountMissions 47
scalar OsgEarthNet.uav[42] utilizationCountManeuversMission 524
scalar OsgEarthNet.uav[42] utilizationCountManeuversMaintenance 93
scalar OsgEarthNet.uav[42] utilizationCountChargeState 47
scalar OsgEarthNet.uav[42] utilizationCountOverdrawnAfterMission 0
scalar OsgEarthNet.uav[42] utilizationCountIdleState 46
scalar OsgEarthNet.uav[42] utilizationFail 0
scalar OsgEarthNet.uav[42] simulationTime 259200
scalar OsgEarthNet.uav[43] utilizationSecMission 31244.792224721
scalar OsgEarthNet.uav[43] utilizationSecMaintenance 16255.699995912
scalar OsgEarthNet.uav[43] utilizationSecCharge 174710
scalar OsgEarthNet.uav[43] utilizationSecIdle 36989.506779367
scalar OsgEarthNet.uav[43] utilizationEnergyMission 144131.63139343
scalar OsgEarthNet.uav[43] utilizationEnergyMaintenance 75737.464862824
scalar OsgEarthNet.uav[43] utilizationEnergyCharge 219332.79736328
scalar OsgEarthNet.uav[43] utilizationEnergyOverdrawMission 0
scalar OsgEarthNet.uav[43] utilizationEnergyOverdrawMaintenance 0
scalar OsgEarthNet.uav[43] utilizationCountMissions 47
scalar OsgEarthNet.uav[43] utilizationCountManeuversMission 499
scalar OsgEarthNet.uav[43] utilizationCountManeuversMaintenance 93
scalar OsgEarthNet.uav[43] utilizationCountChargeState 47
scalar OsgEarthNet.uav[43] utilizationCountOverdrawnAfterMission 0
scalar OsgEarthNet.uav[43] utilizationCountIdleState 47
scalar OsgEarthNet.uav[43] utilizationFail 0
scalar OsgEarthNet.uav[43] simulationTime 259200
scalar OsgEarthNet.uav[44] utilizationSecMission 32880.813261396
scalar OsgEarthNet.uav[44] utilizationSecMaintenance 13921.475222737
scalar OsgEarthNet.uav[44] utilizationSecCharge 171394.67861116
scalar OsgEarthNet.uav[44] utilizationSecIdle 41003.031904706
scalar OsgEarthNet.uav[44] utilizationEnergyMission 153365.2529068
scalar OsgEarthNet.uav[44] utilizationEnergyMaintenance 64729.720802307
scalar OsgEarthNet.uav[44] utilizationEnergyCharge 216897.61523438
scalar OsgEarthNet.uav[44] utilizationEnergyOverdrawMission 0
scalar OsgEarthNet.uav[44] utilizationEnergyOverdrawMaintenance 0
scalar OsgEarthNet.uav[44] utilizationCountMissions 46
scalar OsgEarthNet.uav[44] utilizationCountManeuversMission 530
scalar OsgEarthNet.uav[44] utilizationCountManeuversMaintenance 92
scalar OsgEarthNet.uav[44] utilizationCountChargeState 46
scalar OsgEarthNet.uav[44] utilizationCountOverdrawnAfterMission 0
scalar OsgEarthNet.uav[44] utilizationCountIdleState 44
scalar OsgEarthNet.uav[44] utilizationFail 0
scalar OsgEarthNet.uav[44] simulationTime 259200
scalar OsgEarthNet.uav[45] utilizationSecMission 28049.952771676
scalar OsgEarthNet.uav[45] utilizationSecMaintenance 18371.14985318
scalar OsgEarthNet.uav[45] utilizationSecCharge 170650
scalar OsgEarthNet.uav[45] utilizationSecIdle 42128.896375144
scalar OsgEarthNet.uav[45] utilizationEnergyMission 130478.10735809
scalar OsgEarthNet.uav[45] utilizationEnergyMaintenance 85827.648536682
scalar OsgEarthNet.uav[45] utilizationEnergyCharge 214126.7578125
scalar OsgEarthNet.uav[45] utilizationEnergyOverdrawMission 0
scalar OsgEarthNet.uav[45] utilizationEnergyOverdrawMaintenance 24.189449310303
scalar OsgEarthNet.uav[45] utilizationCountMissions 46
scalar OsgEarthNet.uav[45] utilizationCountManeuversMission 463
scalar OsgEarthNet.uav[45] utilizationCountManeuversMaintenance 93
scalar OsgEarthNet.uav[45] utilizationCountChargeState 46
scalar OsgEarthNet.uav[45] utilizationCountOverdrawnAfterMission 1
scalar OsgEarthNet.uav[45] utilizationCountIdleState 47
scalar OsgEarthNet.uav[45] utilizationFail 0
scalar OsgEarthNet.uav[45] simulationTime 259200
scalar OsgEarthNet.uav[46] utilizationSecMission 27313.053791144
scalar OsgEarthNet.uav[46] utilizationSecMaintenance 15072.017565771
scalar OsgEarthNet.uav[46] utilizationSecCharge 154370
scalar OsgEarthNet.uav[46] utilizationSecIdle 62444.927643085
scalar OsgEarthNet.uav[46] utilizationEnergyMission 127161.18509164
scalar OsgEarthNet.uav[46] utilizationEnergyMaintenance 69650.70999527
scalar OsgEarthNet.uav[46] utilizationEnergyCharge 193669.43603516
scalar OsgEarthNet.uav[46] utilizationEnergyOverdrawMission 0
scalar OsgEarthNet.uav[46] utilizationEnergyOverdrawMaintenance 0
scalar OsgEarthNet.uav[46] utilizationCountMissions 42
scalar OsgEarthNet.uav[46] utilizationCountManeuversMission 455
scalar OsgEarthNet.uav[46] utilizationCountManeuversMaintenance 85
scalar OsgEarthNet.uav[46] utilizationCountChargeState 42
scalar OsgEarthNet.uav[46] utilizationCountOverdrawnAfterMission 0
scalar OsgEarthNet.uav[46] utilizationCountIdleState 41
scalar OsgEarthNet.uav[46] utilizationFail 0
scalar OsgEarthNet.uav[46] simulationTime 259200
scalar OsgEarthNet.uav[47] utilizationSecMission 30166.697634056
scalar OsgEarthNet.uav[47] utilizationSecMaintenance 17996.820581416
scalar OsgEarthNet.uav[47] utilizationSecCharge 175205.51779819
scalar OsgEarthNet.uav[47] utilizationSecIdle 35830.962986334
scalar OsgEarthNet.uav[47] utilizationEnergyMission 138809.53808594
scalar OsgEarthNet.uav[47] utilizationEnergyMaintenance 82670.435314178
scalar OsgEarthNet.uav[47] utilizationEnergyCharge 220342.36962891
scalar OsgEarthNet.uav[47] utilizationEnergyOverdrawMission 0
scalar OsgEarthNet.uav[47] utilizationEnergyOverdrawMaintenance 0
scalar OsgEarthNet.uav[47] utilizationCountMissions 48
scalar OsgEarthNet.uav[47] utilizationCountManeuversMission 504
scalar OsgEarthNet.uav[47] utilizationCountManeuversMaintenance 96
scalar OsgEarthNet.uav[47] utilizationCountChargeState 48
scalar OsgEarthNet.uav[47] utilizationCountOverdrawnAfterMission 0
scalar OsgEarthNet.uav[47] utilizationCountIdleState 45
scalar OsgEarthNet.uav[47] utilizationFail 0
scalar OsgEarthNet.uav[47] simulationTime 259200
scalar OsgEarthNet.uav[48] utilizationSecMission 32789.674338071
scalar OsgEarthNet.uav[48] utilizationSecMaintenance 14456.995928634
scalar OsgEarthNet.uav[48] utilizationSecCharge 174154.15362288
scalar OsgEarthNet.uav[48] utilizationSecIdle 37799.175110411
scalar OsgEarthNet.uav[48] utilizationEnergyMission 151906.01678467
scalar OsgEarthNet.uav[48] utilizationEnergyMaintenance 68132.504489899
scalar OsgEarthNet.uav[48] utilizationEnergyCharge 220209.68188477
scalar OsgEarthNet.uav[48] utilizationEnergyOverdrawMission 0
scalar OsgEarthNet.uav[48] utilizationEnergyOverdrawMaintenance 0
scalar OsgEarthNet.uav[48] utilizationCountMissions 47
scalar OsgEarthNet.uav[48] utilizationCountManeuversMission 533
scalar OsgEarthNet.uav[48] utilizationCountManeuversMaintenance 94
scalar OsgEarthNet.uav[48] utilizationCountChargeState 47
scalar OsgEarthNet.uav[48] utilizationCountOverdrawnAfterMission 0
scalar OsgEarthNet.uav[48] utilizationCountIdleState 46
scalar OsgEarthNet.uav[48] utilizationFail 0
scalar OsgEarthNet.uav[48] simulationTime 259200
scalar OsgEarthNet.uav[49] utilizationSecMission 27843.916092173
scalar OsgEarthNet.uav[49] utilizationSecMaintenance 18352.069808953
scalar OsgEarthNet.uav[49] utilizationSecCharge 168633.44367798
scalar OsgEarthNet.uav[49] utilizationSecIdle 44370.569420895
scalar OsgEarthNet.uav[49] utilizationEnergyMission 129272.28874207
scalar OsgEarthNet.uav[49] utilizationEnergyMaintenance 85575.873603821
scalar OsgEarthNet.uav[49] utilizationEnergyCharge 212342.45654297
scalar OsgEarthNet.uav[49] utilizationEnergyOverdrawMission 0
scalar OsgEarthNet.uav[49] utilizationEnergyOverdrawMaintenance 0
scalar OsgEarthNet.uav[49] utilizationCountMissions 46
scalar OsgEarthNet.uav[49] utilizationCountManeuversMission 456
scalar OsgEarthNet.uav[49] utilizationCountManeuversMaintenance 92
scalar OsgEarthNet.uav[49] utilizationCountChargeState 46
scalar OsgEarthNet.uav[49] utilizationCountOverdrawnAfterMission 0
scalar OsgEarthNet.uav[49] utilizationCountIdleState 44
scalar OsgEarthNet.uav[49] utilizationFail 0
scalar OsgEarthNet.uav[49] simulationTime 259200
scalar OsgEarthNet.cs[0] usedPower 647115.46679496
scalar OsgEarthNet.cs[0] chargedPower 647115.46679496
scalar OsgEarthNet.cs[0] chargedMobileNodes 138
scalar OsgEarthNet.cs[0] reservations 139
scalar OsgEarthNet.cs[1] usedPower 1108462.3459268
scalar OsgEarthNet.cs[1] chargedPower 1108462.3459268
scalar OsgEarthNet.cs[1] chargedMobileNodes 234
scalar OsgEarthNet.cs[1] reservations 238
scalar OsgEarthNet.cs[2] usedPower 2578934.1219286
scalar OsgEarthNet.cs[2] chargedPower 2578934.1219286
scalar OsgEarthNet.cs[2] chargedMobileNodes 542
scalar OsgEarthNet.cs[2] reservations 556
scalar OsgEarthNet.cs[3] usedPower 962266.43527888
scalar OsgEarthNet.cs[3] chargedPower 962266.43527888
scalar OsgEarthNet.cs[3] chargedMobileNodes 204
scalar OsgEarthNet.cs[3] reservations 208
scalar OsgEarthNet.cs[4] usedPower 815990.34877998
scalar OsgEarthNet.cs[4] chargedPower 815990.34877998
scalar OsgEarthNet.cs[4] chargedMobileNodes 175
scalar OsgEarthNet.cs[4] reservations 178
scalar OsgEarthNet.cs[5] usedPower 512567.95955655
scalar OsgEarthNet.cs[5] chargedPower 512567.95955655
scalar OsgEarthNet.cs[5] chargedMobileNodes 107
scalar OsgEarthNet.cs[5] reservations 108
scalar OsgEarthNet.cs[6] usedPower 2454284.2599369
scalar OsgEarthNet.cs[6] chargedPower 2454284.2599369
scalar OsgEarthNet.cs[6] chargedMobileNodes 519
scalar OsgEarthNet.cs[6] reservations 534

