version 2
run Szenario_Hotel_Gabelbach-2-20180710-13:18:01-36788
attr configname Szenario_Hotel_Gabelbach
attr datetime 20180710-13:18:01
attr experiment Szenario_Hotel_Gabelbach
attr inifile omnetpp.ini
attr iterationvars "$replM=0, $replSearchM=0"
attr iterationvarsf replM=0,replSearchM=0-
attr measurement "$replM=0, $replSearchM=0"
attr network OsgEarthNet
attr processid 36788
attr repetition 2
attr replication #2
attr resultdir results
attr runnumber 2
attr seedset 2
itervar replM 0
itervar replSearchM 0
param *.osgEarthScene.scene "\"Szenario_Hotel_Gabelbach.earth\""
param *.playgroundLatitude 50.6830269
param *.playgroundLongitude 10.8538055
param *.playgroundWidth 3500m
param *.playgroundHeight 3500m
param *.numUAVs 100
param *.cs[0].posX 3537m
param *.cs[0].posY 965m
param *.cs[0].posZ 538m
param *.cs[1].posX 312m
param *.cs[1].posY 1262m
param *.cs[1].posZ 539m
param *.cs[2].posX 2185m
param *.cs[2].posY 3026m
param *.cs[2].posZ 777m
param *.cs[3].posX 10m
param *.cs[3].posY 2200m
param *.cs[3].posZ 560m
param *.cs[4].posX 750m
param *.cs[4].posY 200m
param *.cs[4].posZ 540m
param *.cs[5].posX 2450m
param *.cs[5].posY 180m
param *.cs[5].posZ 524m
param *.cs[6].posX 3140m
param *.cs[6].posY 1790m
param *.cs[6].posZ 606m
param *.numCSs 7
param *.uav[*].replacementMethod 0
param *.missionControl.replacementSearchMethod 0
param *.*.timeStep 10s
param *.uav[*].commandPreviewCommandCount 20
param *.missionControl.missionFiles "\"missions\\\\Szenario_WB_Hotel_Gabelbach_Mission_Hotel.waypoints,missions\\\\Szenario_WB_Hotel_Gabelbach_Mission_Kickelhahn.waypoints,missions\\\\Szenario_WB_Hotel_Gabelbach_Mission_Ilmenau_Sportplatz.waypoints,missions\\\\Szenario_WB_Hotel_Gabelbach_Mission_Manebach_Mitte.waypoints,missions\\\\Szenario_WB_Hotel_Gabelbach_Mission_Manebach_Sued.waypoints\""
param *.missionControl.missionFiles "\"missions\\\\Szenario_WB_Hotel_Gabelbach_Mission_Hotel.waypoints,missions\\\\Szenario_WB_Hotel_Gabelbach_Mission_Kickelhahn.waypoints,missions\\\\Szenario_WB_Hotel_Gabelbach_Mission_Ilmenau_Sportplatz.waypoints,missions\\\\Szenario_WB_Hotel_Gabelbach_Mission_Manebach_Mitte.waypoints,missions\\\\Szenario_WB_Hotel_Gabelbach_Mission_Manebach_Sued.waypoints,missions\\\\Szenario_WB_Hotel_Gabelbach_Hover_HoheSchlaufe.waypoints,missions\\\\Szenario_WB_Hotel_Gabelbach_Hover_Kickelhahn.waypoints,missions\\\\Szenario_WB_Hotel_Gabelbach_Hover_Gabelbachskopf.waypoints,missions\\\\Szenario_WB_Hotel_Gabelbach_Hover_Dachskopf.waypoints\""
param *.uav[0].startX 3537m
param *.uav[0].startY 965m
param *.uav[0].startZ 539m
param *.uav[1].startX 312m
param *.uav[1].startY 1262m
param *.uav[1].startZ 540m
param *.uav[2].startX 2185m
param *.uav[2].startY 3026m
param *.uav[2].startZ 778m
param *.uav[3].startX 3537m
param *.uav[3].startY 965m
param *.uav[3].startZ 539m
param *.uav[4].startX 312m
param *.uav[4].startY 1262m
param *.uav[4].startZ 540m
param *.uav[5].startX 2185m
param *.uav[5].startY 3026m
param *.uav[5].startZ 778m
param *.uav[6].startX 3537m
param *.uav[6].startY 965m
param *.uav[6].startZ 539m
param *.uav[7].startX 312m
param *.uav[7].startY 1262m
param *.uav[7].startZ 540m
param *.uav[8].startX 2185m
param *.uav[8].startY 3026m
param *.uav[8].startZ 778m
param *.uav[9].startX 3537m
param *.uav[9].startY 965m
param *.uav[9].startZ 539m
param *.uav[10].startX 3537m
param *.uav[10].startY 965m
param *.uav[10].startZ 539m
param *.uav[11].startX 312m
param *.uav[11].startY 1262m
param *.uav[11].startZ 540m
param *.uav[12].startX 2185m
param *.uav[12].startY 3026m
param *.uav[12].startZ 778m
param *.uav[13].startX 3537m
param *.uav[13].startY 965m
param *.uav[13].startZ 539m
param *.uav[14].startX 312m
param *.uav[14].startY 1262m
param *.uav[14].startZ 540m
param *.uav[15].startX 2185m
param *.uav[15].startY 3026m
param *.uav[15].startZ 778m
param *.uav[16].startX 3537m
param *.uav[16].startY 965m
param *.uav[16].startZ 539m
param *.uav[17].startX 312m
param *.uav[17].startY 1262m
param *.uav[17].startZ 540m
param *.uav[18].startX 2185m
param *.uav[18].startY 3026m
param *.uav[18].startZ 778m
param *.uav[19].startX 3537m
param *.uav[19].startY 965m
param *.uav[19].startZ 539m
param *.uav[20].startX 3537m
param *.uav[20].startY 965m
param *.uav[20].startZ 539m
param *.uav[21].startX 312m
param *.uav[21].startY 1262m
param *.uav[21].startZ 540m
param *.uav[22].startX 2185m
param *.uav[22].startY 3026m
param *.uav[22].startZ 778m
param *.uav[23].startX 3537m
param *.uav[23].startY 965m
param *.uav[23].startZ 539m
param *.uav[24].startX 312m
param *.uav[24].startY 1262m
param *.uav[24].startZ 540m
param *.uav[25].startX 2185m
param *.uav[25].startY 3026m
param *.uav[25].startZ 778m
param *.uav[26].startX 3537m
param *.uav[26].startY 965m
param *.uav[26].startZ 539m
param *.uav[27].startX 312m
param *.uav[27].startY 1262m
param *.uav[27].startZ 540m
param *.uav[28].startX 2185m
param *.uav[28].startY 3026m
param *.uav[28].startZ 778m
param *.uav[29].startX 3537m
param *.uav[29].startY 965m
param *.uav[29].startZ 539m
param *.uav[30].startX 3537m
param *.uav[30].startY 965m
param *.uav[30].startZ 539m
param *.uav[31].startX 312m
param *.uav[31].startY 1262m
param *.uav[31].startZ 540m
param *.uav[32].startX 2185m
param *.uav[32].startY 3026m
param *.uav[32].startZ 778m
param *.uav[33].startX 3537m
param *.uav[33].startY 965m
param *.uav[33].startZ 539m
param *.uav[34].startX 312m
param *.uav[34].startY 1262m
param *.uav[34].startZ 540m
param *.uav[35].startX 2185m
param *.uav[35].startY 3026m
param *.uav[35].startZ 778m
param *.uav[36].startX 3537m
param *.uav[36].startY 965m
param *.uav[36].startZ 539m
param *.uav[37].startX 312m
param *.uav[37].startY 1262m
param *.uav[37].startZ 540m
param *.uav[38].startX 2185m
param *.uav[38].startY 3026m
param *.uav[38].startZ 778m
param *.uav[39].startX 3537m
param *.uav[39].startY 965m
param *.uav[39].startZ 539m
param *.uav[40].startX 3537m
param *.uav[40].startY 965m
param *.uav[40].startZ 539m
param *.uav[41].startX 312m
param *.uav[41].startY 1262m
param *.uav[41].startZ 540m
param *.uav[42].startX 2185m
param *.uav[42].startY 3026m
param *.uav[42].startZ 778m
param *.uav[43].startX 3537m
param *.uav[43].startY 965m
param *.uav[43].startZ 539m
param *.uav[44].startX 312m
param *.uav[44].startY 1262m
param *.uav[44].startZ 540m
param *.uav[45].startX 2185m
param *.uav[45].startY 3026m
param *.uav[45].startZ 778m
param *.uav[46].startX 3537m
param *.uav[46].startY 965m
param *.uav[46].startZ 539m
param *.uav[47].startX 312m
param *.uav[47].startY 1262m
param *.uav[47].startZ 540m
param *.uav[48].startX 2185m
param *.uav[48].startY 3026m
param *.uav[48].startZ 778m
param *.uav[49].startX 3537m
param *.uav[49].startY 965m
param *.uav[49].startZ 539m
param *.uav[50].startX 3537m
param *.uav[50].startY 965m
param *.uav[50].startZ 539m
param *.uav[51].startX 312m
param *.uav[51].startY 1262m
param *.uav[51].startZ 540m
param *.uav[52].startX 2185m
param *.uav[52].startY 3026m
param *.uav[52].startZ 778m
param *.uav[53].startX 3537m
param *.uav[53].startY 965m
param *.uav[53].startZ 539m
param *.uav[54].startX 312m
param *.uav[54].startY 1262m
param *.uav[54].startZ 540m
param *.uav[55].startX 2185m
param *.uav[55].startY 3026m
param *.uav[55].startZ 778m
param *.uav[56].startX 3537m
param *.uav[56].startY 965m
param *.uav[56].startZ 539m
param *.uav[57].startX 312m
param *.uav[57].startY 1262m
param *.uav[57].startZ 540m
param *.uav[58].startX 2185m
param *.uav[58].startY 3026m
param *.uav[58].startZ 778m
param *.uav[59].startX 3537m
param *.uav[59].startY 965m
param *.uav[59].startZ 539m
param *.uav[60].startX 3537m
param *.uav[60].startY 965m
param *.uav[60].startZ 539m
param *.uav[61].startX 312m
param *.uav[61].startY 1262m
param *.uav[61].startZ 540m
param *.uav[62].startX 2185m
param *.uav[62].startY 3026m
param *.uav[62].startZ 778m
param *.uav[63].startX 3537m
param *.uav[63].startY 965m
param *.uav[63].startZ 539m
param *.uav[64].startX 312m
param *.uav[64].startY 1262m
param *.uav[64].startZ 540m
param *.uav[65].startX 2185m
param *.uav[65].startY 3026m
param *.uav[65].startZ 778m
param *.uav[66].startX 3537m
param *.uav[66].startY 965m
param *.uav[66].startZ 539m
param *.uav[67].startX 312m
param *.uav[67].startY 1262m
param *.uav[67].startZ 540m
param *.uav[68].startX 2185m
param *.uav[68].startY 3026m
param *.uav[68].startZ 778m
param *.uav[69].startX 3537m
param *.uav[69].startY 965m
param *.uav[69].startZ 539m
param *.uav[70].startX 3537m
param *.uav[70].startY 965m
param *.uav[70].startZ 539m
param *.uav[71].startX 312m
param *.uav[71].startY 1262m
param *.uav[71].startZ 540m
param *.uav[72].startX 2185m
param *.uav[72].startY 3026m
param *.uav[72].startZ 778m
param *.uav[73].startX 3537m
param *.uav[73].startY 965m
param *.uav[73].startZ 539m
param *.uav[74].startX 312m
param *.uav[74].startY 1262m
param *.uav[74].startZ 540m
param *.uav[75].startX 2185m
param *.uav[75].startY 3026m
param *.uav[75].startZ 778m
param *.uav[76].startX 3537m
param *.uav[76].startY 965m
param *.uav[76].startZ 539m
param *.uav[77].startX 312m
param *.uav[77].startY 1262m
param *.uav[77].startZ 540m
param *.uav[78].startX 2185m
param *.uav[78].startY 3026m
param *.uav[78].startZ 778m
param *.uav[79].startX 3537m
param *.uav[79].startY 965m
param *.uav[79].startZ 539m
param *.uav[80].startX 3537m
param *.uav[80].startY 965m
param *.uav[80].startZ 539m
param *.uav[81].startX 312m
param *.uav[81].startY 1262m
param *.uav[81].startZ 540m
param *.uav[82].startX 2185m
param *.uav[82].startY 3026m
param *.uav[82].startZ 778m
param *.uav[83].startX 3537m
param *.uav[83].startY 965m
param *.uav[83].startZ 539m
param *.uav[84].startX 312m
param *.uav[84].startY 1262m
param *.uav[84].startZ 540m
param *.uav[85].startX 2185m
param *.uav[85].startY 3026m
param *.uav[85].startZ 778m
param *.uav[86].startX 3537m
param *.uav[86].startY 965m
param *.uav[86].startZ 539m
param *.uav[87].startX 312m
param *.uav[87].startY 1262m
param *.uav[87].startZ 540m
param *.uav[88].startX 2185m
param *.uav[88].startY 3026m
param *.uav[88].startZ 778m
param *.uav[89].startX 3537m
param *.uav[89].startY 965m
param *.uav[89].startZ 539m
param *.uav[90].startX 3537m
param *.uav[90].startY 965m
param *.uav[90].startZ 539m
param *.uav[91].startX 312m
param *.uav[91].startY 1262m
param *.uav[91].startZ 540m
param *.uav[92].startX 2185m
param *.uav[92].startY 3026m
param *.uav[92].startZ 778m
param *.uav[93].startX 3537m
param *.uav[93].startY 965m
param *.uav[93].startZ 539m
param *.uav[94].startX 312m
param *.uav[94].startY 1262m
param *.uav[94].startZ 540m
param *.uav[95].startX 2185m
param *.uav[95].startY 3026m
param *.uav[95].startZ 778m
param *.uav[96].startX 3537m
param *.uav[96].startY 965m
param *.uav[96].startZ 539m
param *.uav[97].startX 312m
param *.uav[97].startY 1262m
param *.uav[97].startZ 540m
param *.uav[98].startX 2185m
param *.uav[98].startY 3026m
param *.uav[98].startZ 778m
param *.uav[99].startX 3537m
param *.uav[99].startY 965m
param *.uav[99].startZ 539m
param *.osgEarthScene.scene "\"boston.earth\""
param *.playgroundLatitude 42.3558
param *.playgroundLongitude -71.0677
param *.playgroundWidth 400m
param *.playgroundHeight 200m
param *.channelController.connectionColor "\"#0000FF40\""
param *.channelController.showConnections false
param *.uav[*].modelURL "\"quadrocopter.small.obj.15.scale.0,0,90.rot\""
param *.uav[*].labelColor "\"#FF7C00CC\""
param *.uav[*].label2Color "\"#FF7C00EE\""
param *.uav[*].batteryCapacity 5200mAh
param *.uav[*].batteryRemaining uav[index].batteryCapacity
param *.uav[*].predictionQuantile 0.95
param *.uav[*].replacementMethod 2
param *.uav[*].weightedSumWeight 0.5
param *.cs[*].modelURL "\"chargingstation_v1.osgt.2.scale.0,0,0.rot.0,0,-15e-1.trans\""
param *.cs[*].spotsWaiting 999
param *.cs[*].spotsCharging 999
param *.cs[*].chargeEffectivenessPercentage 100
param *.cs[*].nonLinearPhaseStartPercentage 85
param *.cs[*].chargeCurrent 6.0A
param *.cs[*].prioritizeFastCharge true
param *.missionControl.replacementSearchMethod 0
param *.*.timeStep 9s

scalar OsgEarthNet.uav[0] utilizationSecMission 28827.39045098
scalar OsgEarthNet.uav[0] utilizationSecMaintenance 14993.779037405
scalar OsgEarthNet.uav[0] utilizationSecCharge 160920
scalar OsgEarthNet.uav[0] utilizationSecIdle 54458.829511614
scalar OsgEarthNet.uav[0] utilizationEnergyMission 131865.77996063
scalar OsgEarthNet.uav[0] utilizationEnergyMaintenance 70493.11447525
scalar OsgEarthNet.uav[0] utilizationEnergyCharge 201986.41455078
scalar OsgEarthNet.uav[0] utilizationEnergyOverdrawMission 0
scalar OsgEarthNet.uav[0] utilizationEnergyOverdrawMaintenance 0
scalar OsgEarthNet.uav[0] utilizationCountMissions 43
scalar OsgEarthNet.uav[0] utilizationCountManeuversMission 469
scalar OsgEarthNet.uav[0] utilizationCountManeuversMaintenance 86
scalar OsgEarthNet.uav[0] utilizationCountChargeState 43
scalar OsgEarthNet.uav[0] utilizationCountOverdrawnAfterMission 0
scalar OsgEarthNet.uav[0] utilizationCountIdleState 44
scalar OsgEarthNet.uav[0] utilizationFail 0
scalar OsgEarthNet.uav[0] simulationTime 259200
scalar OsgEarthNet.uav[1] utilizationSecMission 17980.162711161
scalar OsgEarthNet.uav[1] utilizationSecMaintenance 7754.3134564066
scalar OsgEarthNet.uav[1] utilizationSecCharge 90968.307603278
scalar OsgEarthNet.uav[1] utilizationSecIdle 142497.21522915
scalar OsgEarthNet.uav[1] utilizationEnergyMission 81550.69380188
scalar OsgEarthNet.uav[1] utilizationEnergyMaintenance 35459.766731262
scalar OsgEarthNet.uav[1] utilizationEnergyCharge 114843.78735352
scalar OsgEarthNet.uav[1] utilizationEnergyOverdrawMission 0
scalar OsgEarthNet.uav[1] utilizationEnergyOverdrawMaintenance 0
scalar OsgEarthNet.uav[1] utilizationCountMissions 25
scalar OsgEarthNet.uav[1] utilizationCountManeuversMission 290
scalar OsgEarthNet.uav[1] utilizationCountManeuversMaintenance 50
scalar OsgEarthNet.uav[1] utilizationCountChargeState 25
scalar OsgEarthNet.uav[1] utilizationCountOverdrawnAfterMission 0
scalar OsgEarthNet.uav[1] utilizationCountIdleState 25
scalar OsgEarthNet.uav[1] utilizationFail 0
scalar OsgEarthNet.uav[1] simulationTime 259200
scalar OsgEarthNet.uav[2] utilizationSecMission 887.1741082606
scalar OsgEarthNet.uav[2] utilizationSecMaintenance 171.13387461676
scalar OsgEarthNet.uav[2] utilizationSecCharge 3910
scalar OsgEarthNet.uav[2] utilizationSecIdle 254231.69101712
scalar OsgEarthNet.uav[2] utilizationEnergyMission 4120.5508880615
scalar OsgEarthNet.uav[2] utilizationEnergyMaintenance 849.02013397217
scalar OsgEarthNet.uav[2] utilizationEnergyCharge 4959.267578125
scalar OsgEarthNet.uav[2] utilizationEnergyOverdrawMission 0
scalar OsgEarthNet.uav[2] utilizationEnergyOverdrawMaintenance 0
scalar OsgEarthNet.uav[2] utilizationCountMissions 1
scalar OsgEarthNet.uav[2] utilizationCountManeuversMission 14
scalar OsgEarthNet.uav[2] utilizationCountManeuversMaintenance 2
scalar OsgEarthNet.uav[2] utilizationCountChargeState 1
scalar OsgEarthNet.uav[2] utilizationCountOverdrawnAfterMission 0
scalar OsgEarthNet.uav[2] utilizationCountIdleState 2
scalar OsgEarthNet.uav[2] utilizationFail 0
scalar OsgEarthNet.uav[2] simulationTime 259200
scalar OsgEarthNet.uav[3] utilizationSecMission 28773.285510012
scalar OsgEarthNet.uav[3] utilizationSecMaintenance 12482.164939701
scalar OsgEarthNet.uav[3] utilizationSecCharge 150921.78257973
scalar OsgEarthNet.uav[3] utilizationSecIdle 67022.765970554
scalar OsgEarthNet.uav[3] utilizationEnergyMission 132266.19189453
scalar OsgEarthNet.uav[3] utilizationEnergyMaintenance 58377.575645447
scalar OsgEarthNet.uav[3] utilizationEnergyCharge 189916.42602539
scalar OsgEarthNet.uav[3] utilizationEnergyOverdrawMission 0
scalar OsgEarthNet.uav[3] utilizationEnergyOverdrawMaintenance 0
scalar OsgEarthNet.uav[3] utilizationCountMissions 41
scalar OsgEarthNet.uav[3] utilizationCountManeuversMission 460
scalar OsgEarthNet.uav[3] utilizationCountManeuversMaintenance 82
scalar OsgEarthNet.uav[3] utilizationCountChargeState 41
scalar OsgEarthNet.uav[3] utilizationCountOverdrawnAfterMission 0
scalar OsgEarthNet.uav[3] utilizationCountIdleState 41
scalar OsgEarthNet.uav[3] utilizationFail 0
scalar OsgEarthNet.uav[3] simulationTime 259200
scalar OsgEarthNet.uav[4] utilizationSecMission 28980.464004379
scalar OsgEarthNet.uav[4] utilizationSecMaintenance 13552.694356967
scalar OsgEarthNet.uav[4] utilizationSecCharge 154179.63499339
scalar OsgEarthNet.uav[4] utilizationSecIdle 62487.205645262
scalar OsgEarthNet.uav[4] utilizationEnergyMission 134932.88359833
scalar OsgEarthNet.uav[4] utilizationEnergyMaintenance 63308.888679504
scalar OsgEarthNet.uav[4] utilizationEnergyCharge 193668.17941284
scalar OsgEarthNet.uav[4] utilizationEnergyOverdrawMission 0
scalar OsgEarthNet.uav[4] utilizationEnergyOverdrawMaintenance 0
scalar OsgEarthNet.uav[4] utilizationCountMissions 42
scalar OsgEarthNet.uav[4] utilizationCountManeuversMission 483
scalar OsgEarthNet.uav[4] utilizationCountManeuversMaintenance 84
scalar OsgEarthNet.uav[4] utilizationCountChargeState 42
scalar OsgEarthNet.uav[4] utilizationCountOverdrawnAfterMission 0
scalar OsgEarthNet.uav[4] utilizationCountIdleState 42
scalar OsgEarthNet.uav[4] utilizationFail 0
scalar OsgEarthNet.uav[4] simulationTime 259200
scalar OsgEarthNet.uav[5] utilizationSecMission 31344.03892055
scalar OsgEarthNet.uav[5] utilizationSecMaintenance 14003.282984917
scalar OsgEarthNet.uav[5] utilizationSecCharge 167406.64099576
scalar OsgEarthNet.uav[5] utilizationSecIdle 46446.036098769
scalar OsgEarthNet.uav[5] utilizationEnergyMission 144957.5519104
scalar OsgEarthNet.uav[5] utilizationEnergyMaintenance 66042.400707245
scalar OsgEarthNet.uav[5] utilizationEnergyCharge 210390.43945312
scalar OsgEarthNet.uav[5] utilizationEnergyOverdrawMission 0
scalar OsgEarthNet.uav[5] utilizationEnergyOverdrawMaintenance 0
scalar OsgEarthNet.uav[5] utilizationCountMissions 45
scalar OsgEarthNet.uav[5] utilizationCountManeuversMission 517
scalar OsgEarthNet.uav[5] utilizationCountManeuversMaintenance 90
scalar OsgEarthNet.uav[5] utilizationCountChargeState 45
scalar OsgEarthNet.uav[5] utilizationCountOverdrawnAfterMission 0
scalar OsgEarthNet.uav[5] utilizationCountIdleState 45
scalar OsgEarthNet.uav[5] utilizationFail 0
scalar OsgEarthNet.uav[5] simulationTime 259200
scalar OsgEarthNet.uav[6] utilizationSecMission 836.77707522227
scalar OsgEarthNet.uav[6] utilizationSecMaintenance 217.0347828456
scalar OsgEarthNet.uav[6] utilizationSecCharge 3650
scalar OsgEarthNet.uav[6] utilizationSecIdle 254496.18714193
scalar OsgEarthNet.uav[6] utilizationEnergyMission 3522.0053863525
scalar OsgEarthNet.uav[6] utilizationEnergyMaintenance 1008.0789909363
scalar OsgEarthNet.uav[6] utilizationEnergyCharge 4530.0883789062
scalar OsgEarthNet.uav[6] utilizationEnergyOverdrawMission 0
scalar OsgEarthNet.uav[6] utilizationEnergyOverdrawMaintenance 0
scalar OsgEarthNet.uav[6] utilizationCountMissions 1
scalar OsgEarthNet.uav[6] utilizationCountManeuversMission 13
scalar OsgEarthNet.uav[6] utilizationCountManeuversMaintenance 2
scalar OsgEarthNet.uav[6] utilizationCountChargeState 1
scalar OsgEarthNet.uav[6] utilizationCountOverdrawnAfterMission 0
scalar OsgEarthNet.uav[6] utilizationCountIdleState 2
scalar OsgEarthNet.uav[6] utilizationFail 0
scalar OsgEarthNet.uav[6] simulationTime 259200
scalar OsgEarthNet.uav[7] utilizationSecMission 27093.51954041
scalar OsgEarthNet.uav[7] utilizationSecMaintenance 15452.792238805
scalar OsgEarthNet.uav[7] utilizationSecCharge 157340.6553199
scalar OsgEarthNet.uav[7] utilizationSecIdle 59313.031900886
scalar OsgEarthNet.uav[7] utilizationEnergyMission 125853.40363312
scalar OsgEarthNet.uav[7] utilizationEnergyMaintenance 71952.285057068
scalar OsgEarthNet.uav[7] utilizationEnergyCharge 197872.19384766
scalar OsgEarthNet.uav[7] utilizationEnergyOverdrawMission 0
scalar OsgEarthNet.uav[7] utilizationEnergyOverdrawMaintenance 0
scalar OsgEarthNet.uav[7] utilizationCountMissions 42
scalar OsgEarthNet.uav[7] utilizationCountManeuversMission 449
scalar OsgEarthNet.uav[7] utilizationCountManeuversMaintenance 84
scalar OsgEarthNet.uav[7] utilizationCountChargeState 42
scalar OsgEarthNet.uav[7] utilizationCountOverdrawnAfterMission 0
scalar OsgEarthNet.uav[7] utilizationCountIdleState 42
scalar OsgEarthNet.uav[7] utilizationFail 0
scalar OsgEarthNet.uav[7] simulationTime 259200
scalar OsgEarthNet.uav[8] utilizationSecMission 32913.03318546
scalar OsgEarthNet.uav[8] utilizationSecMaintenance 11407.358038359
scalar OsgEarthNet.uav[8] utilizationSecCharge 164440
scalar OsgEarthNet.uav[8] utilizationSecIdle 50439.60777618
scalar OsgEarthNet.uav[8] utilizationEnergyMission 150929.81635284
scalar OsgEarthNet.uav[8] utilizationEnergyMaintenance 54878.778850555
scalar OsgEarthNet.uav[8] utilizationEnergyCharge 206283.7109375
scalar OsgEarthNet.uav[8] utilizationEnergyOverdrawMission 0
scalar OsgEarthNet.uav[8] utilizationEnergyOverdrawMaintenance 0
scalar OsgEarthNet.uav[8] utilizationCountMissions 44
scalar OsgEarthNet.uav[8] utilizationCountManeuversMission 532
scalar OsgEarthNet.uav[8] utilizationCountManeuversMaintenance 88
scalar OsgEarthNet.uav[8] utilizationCountChargeState 44
scalar OsgEarthNet.uav[8] utilizationCountOverdrawnAfterMission 0
scalar OsgEarthNet.uav[8] utilizationCountIdleState 45
scalar OsgEarthNet.uav[8] utilizationFail 0
scalar OsgEarthNet.uav[8] simulationTime 259200
scalar OsgEarthNet.uav[9] utilizationSecMission 28776.957266305
scalar OsgEarthNet.uav[9] utilizationSecMaintenance 13546.68359305
scalar OsgEarthNet.uav[9] utilizationSecCharge 154714.21832229
scalar OsgEarthNet.uav[9] utilizationSecIdle 62162.13981836
scalar OsgEarthNet.uav[9] utilizationEnergyMission 132525.46901703
scalar OsgEarthNet.uav[9] utilizationEnergyMaintenance 63576.391010284
scalar OsgEarthNet.uav[9] utilizationEnergyCharge 194922.46899414
scalar OsgEarthNet.uav[9] utilizationEnergyOverdrawMission 0
scalar OsgEarthNet.uav[9] utilizationEnergyOverdrawMaintenance 0
scalar OsgEarthNet.uav[9] utilizationCountMissions 42
scalar OsgEarthNet.uav[9] utilizationCountManeuversMission 472
scalar OsgEarthNet.uav[9] utilizationCountManeuversMaintenance 84
scalar OsgEarthNet.uav[9] utilizationCountChargeState 42
scalar OsgEarthNet.uav[9] utilizationCountOverdrawnAfterMission 0
scalar OsgEarthNet.uav[9] utilizationCountIdleState 42
scalar OsgEarthNet.uav[9] utilizationFail 0
scalar OsgEarthNet.uav[9] simulationTime 259200
scalar OsgEarthNet.uav[10] utilizationSecMission 510.19019122229
scalar OsgEarthNet.uav[10] utilizationSecMaintenance 438.84287141926
scalar OsgEarthNet.uav[10] utilizationSecCharge 3640
scalar OsgEarthNet.uav[10] utilizationSecIdle 254610.96593736
scalar OsgEarthNet.uav[10] utilizationEnergyMission 2203.5119018555
scalar OsgEarthNet.uav[10] utilizationEnergyMaintenance 2155.5957450867
scalar OsgEarthNet.uav[10] utilizationEnergyCharge 4511.1040039062
scalar OsgEarthNet.uav[10] utilizationEnergyOverdrawMission 0
scalar OsgEarthNet.uav[10] utilizationEnergyOverdrawMaintenance 0
scalar OsgEarthNet.uav[10] utilizationCountMissions 1
scalar OsgEarthNet.uav[10] utilizationCountManeuversMission 8
scalar OsgEarthNet.uav[10] utilizationCountManeuversMaintenance 2
scalar OsgEarthNet.uav[10] utilizationCountChargeState 1
scalar OsgEarthNet.uav[10] utilizationCountOverdrawnAfterMission 0
scalar OsgEarthNet.uav[10] utilizationCountIdleState 2
scalar OsgEarthNet.uav[10] utilizationFail 0
scalar OsgEarthNet.uav[10] simulationTime 259200
scalar OsgEarthNet.uav[11] utilizationSecMission 21959.763774919
scalar OsgEarthNet.uav[11] utilizationSecMaintenance 11873.764384135
scalar OsgEarthNet.uav[11] utilizationSecCharge 125573.25438884
scalar OsgEarthNet.uav[11] utilizationSecIdle 99793.216452102
scalar OsgEarthNet.uav[11] utilizationEnergyMission 102511.61871338
scalar OsgEarthNet.uav[11] utilizationEnergyMaintenance 55752.367301941
scalar OsgEarthNet.uav[11] utilizationEnergyCharge 157985.58154297
scalar OsgEarthNet.uav[11] utilizationEnergyOverdrawMission 0
scalar OsgEarthNet.uav[11] utilizationEnergyOverdrawMaintenance 0
scalar OsgEarthNet.uav[11] utilizationCountMissions 34
scalar OsgEarthNet.uav[11] utilizationCountManeuversMission 361
scalar OsgEarthNet.uav[11] utilizationCountManeuversMaintenance 68
scalar OsgEarthNet.uav[11] utilizationCountChargeState 34
scalar OsgEarthNet.uav[11] utilizationCountOverdrawnAfterMission 0
scalar OsgEarthNet.uav[11] utilizationCountIdleState 34
scalar OsgEarthNet.uav[11] utilizationFail 0
scalar OsgEarthNet.uav[11] simulationTime 259200
scalar OsgEarthNet.uav[12] utilizationSecMission 694.00169469977
scalar OsgEarthNet.uav[12] utilizationSecMaintenance 282.18572599206
scalar OsgEarthNet.uav[12] utilizationSecCharge 3780
scalar OsgEarthNet.uav[12] utilizationSecIdle 254443.81157931
scalar OsgEarthNet.uav[12] utilizationEnergyMission 3381.7146224976
scalar OsgEarthNet.uav[12] utilizationEnergyMaintenance 1392.4088363647
scalar OsgEarthNet.uav[12] utilizationEnergyCharge 4774.1225585938
scalar OsgEarthNet.uav[12] utilizationEnergyOverdrawMission 0
scalar OsgEarthNet.uav[12] utilizationEnergyOverdrawMaintenance 0
scalar OsgEarthNet.uav[12] utilizationCountMissions 1
scalar OsgEarthNet.uav[12] utilizationCountManeuversMission 13
scalar OsgEarthNet.uav[12] utilizationCountManeuversMaintenance 2
scalar OsgEarthNet.uav[12] utilizationCountChargeState 1
scalar OsgEarthNet.uav[12] utilizationCountOverdrawnAfterMission 0
scalar OsgEarthNet.uav[12] utilizationCountIdleState 2
scalar OsgEarthNet.uav[12] utilizationFail 0
scalar OsgEarthNet.uav[12] simulationTime 259200
scalar OsgEarthNet.uav[13] utilizationSecMission 760.62515258028
scalar OsgEarthNet.uav[13] utilizationSecMaintenance 293.6438949726
scalar OsgEarthNet.uav[13] utilizationSecCharge 3950
scalar OsgEarthNet.uav[13] utilizationSecIdle 254195.72995245
scalar OsgEarthNet.uav[13] utilizationEnergyMission 3585.9110565186
scalar OsgEarthNet.uav[13] utilizationEnergyMaintenance 1463.0475769043
scalar OsgEarthNet.uav[13] utilizationEnergyCharge 5048.95703125
scalar OsgEarthNet.uav[13] utilizationEnergyOverdrawMission 0
scalar OsgEarthNet.uav[13] utilizationEnergyOverdrawMaintenance 0
scalar OsgEarthNet.uav[13] utilizationCountMissions 1
scalar OsgEarthNet.uav[13] utilizationCountManeuversMission 12
scalar OsgEarthNet.uav[13] utilizationCountManeuversMaintenance 2
scalar OsgEarthNet.uav[13] utilizationCountChargeState 1
scalar OsgEarthNet.uav[13] utilizationCountOverdrawnAfterMission 0
scalar OsgEarthNet.uav[13] utilizationCountIdleState 2
scalar OsgEarthNet.uav[13] utilizationFail 0
scalar OsgEarthNet.uav[13] simulationTime 259200
scalar OsgEarthNet.uav[14] utilizationSecMission 25437.740769277
scalar OsgEarthNet.uav[14] utilizationSecMaintenance 11019.520994574
scalar OsgEarthNet.uav[14] utilizationSecCharge 135100
scalar OsgEarthNet.uav[14] utilizationSecIdle 87642.737236149
scalar OsgEarthNet.uav[14] utilizationEnergyMission 117141.69390106
scalar OsgEarthNet.uav[14] utilizationEnergyMaintenance 52061.856948853
scalar OsgEarthNet.uav[14] utilizationEnergyCharge 169588.01025391
scalar OsgEarthNet.uav[14] utilizationEnergyOverdrawMission 0
scalar OsgEarthNet.uav[14] utilizationEnergyOverdrawMaintenance 0
scalar OsgEarthNet.uav[14] utilizationCountMissions 36
scalar OsgEarthNet.uav[14] utilizationCountManeuversMission 411
scalar OsgEarthNet.uav[14] utilizationCountManeuversMaintenance 72
scalar OsgEarthNet.uav[14] utilizationCountChargeState 36
scalar OsgEarthNet.uav[14] utilizationCountOverdrawnAfterMission 0
scalar OsgEarthNet.uav[14] utilizationCountIdleState 37
scalar OsgEarthNet.uav[14] utilizationFail 0
scalar OsgEarthNet.uav[14] simulationTime 259200
scalar OsgEarthNet.uav[15] utilizationSecMission 887.1741082606
scalar OsgEarthNet.uav[15] utilizationSecMaintenance 171.13387461676
scalar OsgEarthNet.uav[15] utilizationSecCharge 3870
scalar OsgEarthNet.uav[15] utilizationSecIdle 254271.69101712
scalar OsgEarthNet.uav[15] utilizationEnergyMission 3996.9586181641
scalar OsgEarthNet.uav[15] utilizationEnergyMaintenance 818.61098480224
scalar OsgEarthNet.uav[15] utilizationEnergyCharge 4900.8852539062
scalar OsgEarthNet.uav[15] utilizationEnergyOverdrawMission 0
scalar OsgEarthNet.uav[15] utilizationEnergyOverdrawMaintenance 0
scalar OsgEarthNet.uav[15] utilizationCountMissions 1
scalar OsgEarthNet.uav[15] utilizationCountManeuversMission 14
scalar OsgEarthNet.uav[15] utilizationCountManeuversMaintenance 2
scalar OsgEarthNet.uav[15] utilizationCountChargeState 1
scalar OsgEarthNet.uav[15] utilizationCountOverdrawnAfterMission 0
scalar OsgEarthNet.uav[15] utilizationCountIdleState 2
scalar OsgEarthNet.uav[15] utilizationFail 0
scalar OsgEarthNet.uav[15] simulationTime 259200
scalar OsgEarthNet.uav[16] utilizationSecMission 760.62515258028
scalar OsgEarthNet.uav[16] utilizationSecMaintenance 223.6438949726
scalar OsgEarthNet.uav[16] utilizationSecCharge 3740
scalar OsgEarthNet.uav[16] utilizationSecIdle 254475.72995245
scalar OsgEarthNet.uav[16] utilizationEnergyMission 3566.40625
scalar OsgEarthNet.uav[16] utilizationEnergyMaintenance 1126.5898551941
scalar OsgEarthNet.uav[16] utilizationEnergyCharge 4692.9995117188
scalar OsgEarthNet.uav[16] utilizationEnergyOverdrawMission 0
scalar OsgEarthNet.uav[16] utilizationEnergyOverdrawMaintenance 0
scalar OsgEarthNet.uav[16] utilizationCountMissions 1
scalar OsgEarthNet.uav[16] utilizationCountManeuversMission 12
scalar OsgEarthNet.uav[16] utilizationCountManeuversMaintenance 2
scalar OsgEarthNet.uav[16] utilizationCountChargeState 1
scalar OsgEarthNet.uav[16] utilizationCountOverdrawnAfterMission 0
scalar OsgEarthNet.uav[16] utilizationCountIdleState 2
scalar OsgEarthNet.uav[16] utilizationFail 0
scalar OsgEarthNet.uav[16] simulationTime 259200
scalar OsgEarthNet.uav[17] utilizationSecMission 5063.7610864745
scalar OsgEarthNet.uav[17] utilizationSecMaintenance 2037.2887736644
scalar OsgEarthNet.uav[17] utilizationSecCharge 26230
scalar OsgEarthNet.uav[17] utilizationSecIdle 225868.94913986
scalar OsgEarthNet.uav[17] utilizationEnergyMission 23267.554519653
scalar OsgEarthNet.uav[17] utilizationEnergyMaintenance 9563.942615509
scalar OsgEarthNet.uav[17] utilizationEnergyCharge 32836.219726562
scalar OsgEarthNet.uav[17] utilizationEnergyOverdrawMission 0
scalar OsgEarthNet.uav[17] utilizationEnergyOverdrawMaintenance 0
scalar OsgEarthNet.uav[17] utilizationCountMissions 7
scalar OsgEarthNet.uav[17] utilizationCountManeuversMission 83
scalar OsgEarthNet.uav[17] utilizationCountManeuversMaintenance 14
scalar OsgEarthNet.uav[17] utilizationCountChargeState 7
scalar OsgEarthNet.uav[17] utilizationCountOverdrawnAfterMission 0
scalar OsgEarthNet.uav[17] utilizationCountIdleState 8
scalar OsgEarthNet.uav[17] utilizationFail 0
scalar OsgEarthNet.uav[17] simulationTime 259200
scalar OsgEarthNet.uav[18] utilizationSecMission 694.00169469977
scalar OsgEarthNet.uav[18] utilizationSecMaintenance 338.49695459722
scalar OsgEarthNet.uav[18] utilizationSecCharge 3690
scalar OsgEarthNet.uav[18] utilizationSecIdle 254477.5003507
scalar OsgEarthNet.uav[18] utilizationEnergyMission 3075.0100097656
scalar OsgEarthNet.uav[18] utilizationEnergyMaintenance 1491.2341423035
scalar OsgEarthNet.uav[18] utilizationEnergyCharge 4566.248046875
scalar OsgEarthNet.uav[18] utilizationEnergyOverdrawMission 0
scalar OsgEarthNet.uav[18] utilizationEnergyOverdrawMaintenance 0
scalar OsgEarthNet.uav[18] utilizationCountMissions 1
scalar OsgEarthNet.uav[18] utilizationCountManeuversMission 13
scalar OsgEarthNet.uav[18] utilizationCountManeuversMaintenance 2
scalar OsgEarthNet.uav[18] utilizationCountChargeState 1
scalar OsgEarthNet.uav[18] utilizationCountOverdrawnAfterMission 0
scalar OsgEarthNet.uav[18] utilizationCountIdleState 2
scalar OsgEarthNet.uav[18] utilizationFail 0
scalar OsgEarthNet.uav[18] simulationTime 259200
scalar OsgEarthNet.uav[19] utilizationSecMission 750.20472747826
scalar OsgEarthNet.uav[19] utilizationSecMaintenance 261.68051383311
scalar OsgEarthNet.uav[19] utilizationSecCharge 3720
scalar OsgEarthNet.uav[19] utilizationSecIdle 254468.11375869
scalar OsgEarthNet.uav[19] utilizationEnergyMission 3430.9700012207
scalar OsgEarthNet.uav[19] utilizationEnergyMaintenance 1249.7244987488
scalar OsgEarthNet.uav[19] utilizationEnergyCharge 4680.697265625
scalar OsgEarthNet.uav[19] utilizationEnergyOverdrawMission 0
scalar OsgEarthNet.uav[19] utilizationEnergyOverdrawMaintenance 0
scalar OsgEarthNet.uav[19] utilizationCountMissions 1
scalar OsgEarthNet.uav[19] utilizationCountManeuversMission 11
scalar OsgEarthNet.uav[19] utilizationCountManeuversMaintenance 2
scalar OsgEarthNet.uav[19] utilizationCountChargeState 1
scalar OsgEarthNet.uav[19] utilizationCountOverdrawnAfterMission 0
scalar OsgEarthNet.uav[19] utilizationCountIdleState 2
scalar OsgEarthNet.uav[19] utilizationFail 0
scalar OsgEarthNet.uav[19] simulationTime 259200
scalar OsgEarthNet.uav[20] utilizationSecMission 735.14326557473
scalar OsgEarthNet.uav[20] utilizationSecMaintenance 350.53687742834
scalar OsgEarthNet.uav[20] utilizationSecCharge 3800
scalar OsgEarthNet.uav[20] utilizationSecIdle 254314.318857
scalar OsgEarthNet.uav[20] utilizationEnergyMission 3309.635055542
scalar OsgEarthNet.uav[20] utilizationEnergyMaintenance 1723.0835037231
scalar OsgEarthNet.uav[20] utilizationEnergyCharge 4774.3798828125
scalar OsgEarthNet.uav[20] utilizationEnergyOverdrawMission 0
scalar OsgEarthNet.uav[20] utilizationEnergyOverdrawMaintenance 0
scalar OsgEarthNet.uav[20] utilizationCountMissions 1
scalar OsgEarthNet.uav[20] utilizationCountManeuversMission 11
scalar OsgEarthNet.uav[20] utilizationCountManeuversMaintenance 2
scalar OsgEarthNet.uav[20] utilizationCountChargeState 1
scalar OsgEarthNet.uav[20] utilizationCountOverdrawnAfterMission 0
scalar OsgEarthNet.uav[20] utilizationCountIdleState 2
scalar OsgEarthNet.uav[20] utilizationFail 0
scalar OsgEarthNet.uav[20] simulationTime 259200
scalar OsgEarthNet.uav[21] utilizationSecMission 655.55330183502
scalar OsgEarthNet.uav[21] utilizationSecMaintenance 334.5505930207
scalar OsgEarthNet.uav[21] utilizationSecCharge 3690
scalar OsgEarthNet.uav[21] utilizationSecIdle 254519.89510514
scalar OsgEarthNet.uav[21] utilizationEnergyMission 2889.1798706055
scalar OsgEarthNet.uav[21] utilizationEnergyMaintenance 1702.8270378113
scalar OsgEarthNet.uav[21] utilizationEnergyCharge 4592.0063476562
scalar OsgEarthNet.uav[21] utilizationEnergyOverdrawMission 0
scalar OsgEarthNet.uav[21] utilizationEnergyOverdrawMaintenance 0
scalar OsgEarthNet.uav[21] utilizationCountMissions 1
scalar OsgEarthNet.uav[21] utilizationCountManeuversMission 10
scalar OsgEarthNet.uav[21] utilizationCountManeuversMaintenance 2
scalar OsgEarthNet.uav[21] utilizationCountChargeState 1
scalar OsgEarthNet.uav[21] utilizationCountOverdrawnAfterMission 0
scalar OsgEarthNet.uav[21] utilizationCountIdleState 2
scalar OsgEarthNet.uav[21] utilizationFail 0
scalar OsgEarthNet.uav[21] simulationTime 259200
scalar OsgEarthNet.uav[22] utilizationSecMission 21078.981956405
scalar OsgEarthNet.uav[22] utilizationSecMaintenance 10389.303934353
scalar OsgEarthNet.uav[22] utilizationSecCharge 115443.13952695
scalar OsgEarthNet.uav[22] utilizationSecIdle 112288.57358229
scalar OsgEarthNet.uav[22] utilizationEnergyMission 97420.672935486
scalar OsgEarthNet.uav[22] utilizationEnergyMaintenance 48596.173999786
scalar OsgEarthNet.uav[22] utilizationEnergyCharge 145835.82861328
scalar OsgEarthNet.uav[22] utilizationEnergyOverdrawMission 0
scalar OsgEarthNet.uav[22] utilizationEnergyOverdrawMaintenance 0
scalar OsgEarthNet.uav[22] utilizationCountMissions 31
scalar OsgEarthNet.uav[22] utilizationCountManeuversMission 341
scalar OsgEarthNet.uav[22] utilizationCountManeuversMaintenance 62
scalar OsgEarthNet.uav[22] utilizationCountChargeState 31
scalar OsgEarthNet.uav[22] utilizationCountOverdrawnAfterMission 0
scalar OsgEarthNet.uav[22] utilizationCountIdleState 31
scalar OsgEarthNet.uav[22] utilizationFail 0
scalar OsgEarthNet.uav[22] simulationTime 259200
scalar OsgEarthNet.uav[23] utilizationSecMission 760.62515258028
scalar OsgEarthNet.uav[23] utilizationSecMaintenance 223.6438949726
scalar OsgEarthNet.uav[23] utilizationSecCharge 3830
scalar OsgEarthNet.uav[23] utilizationSecIdle 254385.72995245
scalar OsgEarthNet.uav[23] utilizationEnergyMission 3693.6959991455
scalar OsgEarthNet.uav[23] utilizationEnergyMaintenance 1185.4375724792
scalar OsgEarthNet.uav[23] utilizationEnergyCharge 4879.1362304688
scalar OsgEarthNet.uav[23] utilizationEnergyOverdrawMission 0
scalar OsgEarthNet.uav[23] utilizationEnergyOverdrawMaintenance 0
scalar OsgEarthNet.uav[23] utilizationCountMissions 1
scalar OsgEarthNet.uav[23] utilizationCountManeuversMission 12
scalar OsgEarthNet.uav[23] utilizationCountManeuversMaintenance 2
scalar OsgEarthNet.uav[23] utilizationCountChargeState 1
scalar OsgEarthNet.uav[23] utilizationCountOverdrawnAfterMission 0
scalar OsgEarthNet.uav[23] utilizationCountIdleState 2
scalar OsgEarthNet.uav[23] utilizationFail 0
scalar OsgEarthNet.uav[23] simulationTime 259200
scalar OsgEarthNet.uav[24] utilizationSecMission 27675.494084166
scalar OsgEarthNet.uav[24] utilizationSecMaintenance 15709.48037613
scalar OsgEarthNet.uav[24] utilizationSecCharge 158840.15451423
scalar OsgEarthNet.uav[24] utilizationSecIdle 56974.870025475
scalar OsgEarthNet.uav[24] utilizationEnergyMission 128268.42947769
scalar OsgEarthNet.uav[24] utilizationEnergyMaintenance 73585.965408325
scalar OsgEarthNet.uav[24] utilizationEnergyCharge 199864.04614258
scalar OsgEarthNet.uav[24] utilizationEnergyOverdrawMission 0
scalar OsgEarthNet.uav[24] utilizationEnergyOverdrawMaintenance 0
scalar OsgEarthNet.uav[24] utilizationCountMissions 43
scalar OsgEarthNet.uav[24] utilizationCountManeuversMission 463
scalar OsgEarthNet.uav[24] utilizationCountManeuversMaintenance 86
scalar OsgEarthNet.uav[24] utilizationCountChargeState 43
scalar OsgEarthNet.uav[24] utilizationCountOverdrawnAfterMission 0
scalar OsgEarthNet.uav[24] utilizationCountIdleState 43
scalar OsgEarthNet.uav[24] utilizationFail 0
scalar OsgEarthNet.uav[24] simulationTime 259200
scalar OsgEarthNet.uav[25] utilizationSecMission 11296.339020588
scalar OsgEarthNet.uav[25] utilizationSecMaintenance 6018.1947203764
scalar OsgEarthNet.uav[25] utilizationSecCharge 61879.442013841
scalar OsgEarthNet.uav[25] utilizationSecIdle 180006.0232452
scalar OsgEarthNet.uav[25] utilizationEnergyMission 52021.6888237
scalar OsgEarthNet.uav[25] utilizationEnergyMaintenance 28159.896186829
scalar OsgEarthNet.uav[25] utilizationEnergyCharge 78587.585449219
scalar OsgEarthNet.uav[25] utilizationEnergyOverdrawMission 0
scalar OsgEarthNet.uav[25] utilizationEnergyOverdrawMaintenance 0
scalar OsgEarthNet.uav[25] utilizationCountMissions 17
scalar OsgEarthNet.uav[25] utilizationCountManeuversMission 186
scalar OsgEarthNet.uav[25] utilizationCountManeuversMaintenance 34
scalar OsgEarthNet.uav[25] utilizationCountChargeState 17
scalar OsgEarthNet.uav[25] utilizationCountOverdrawnAfterMission 0
scalar OsgEarthNet.uav[25] utilizationCountIdleState 17
scalar OsgEarthNet.uav[25] utilizationFail 0
scalar OsgEarthNet.uav[25] simulationTime 259200
scalar OsgEarthNet.uav[26] utilizationSecMission 684.4732299383
scalar OsgEarthNet.uav[26] utilizationSecMaintenance 298.56834692969
scalar OsgEarthNet.uav[26] utilizationSecCharge 3670
scalar OsgEarthNet.uav[26] utilizationSecIdle 254546.95742313
scalar OsgEarthNet.uav[26] utilizationEnergyMission 3074.7903747559
scalar OsgEarthNet.uav[26] utilizationEnergyMaintenance 1500.5623397827
scalar OsgEarthNet.uav[26] utilizationEnergyCharge 4575.3520507812
scalar OsgEarthNet.uav[26] utilizationEnergyOverdrawMission 0
scalar OsgEarthNet.uav[26] utilizationEnergyOverdrawMaintenance 0
scalar OsgEarthNet.uav[26] utilizationCountMissions 1
scalar OsgEarthNet.uav[26] utilizationCountManeuversMission 11
scalar OsgEarthNet.uav[26] utilizationCountManeuversMaintenance 2
scalar OsgEarthNet.uav[26] utilizationCountChargeState 1
scalar OsgEarthNet.uav[26] utilizationCountOverdrawnAfterMission 0
scalar OsgEarthNet.uav[26] utilizationCountIdleState 2
scalar OsgEarthNet.uav[26] utilizationFail 0
scalar OsgEarthNet.uav[26] simulationTime 259200
scalar OsgEarthNet.uav[27] utilizationSecMission 26658.563513121
scalar OsgEarthNet.uav[27] utilizationSecMaintenance 12500.391576805
scalar OsgEarthNet.uav[27] utilizationSecCharge 144850
scalar OsgEarthNet.uav[27] utilizationSecIdle 75191.043910074
scalar OsgEarthNet.uav[27] utilizationEnergyMission 123092.13454819
scalar OsgEarthNet.uav[27] utilizationEnergyMaintenance 59163.549376694
scalar OsgEarthNet.uav[27] utilizationEnergyCharge 181179.19433594
scalar OsgEarthNet.uav[27] utilizationEnergyOverdrawMission 0
scalar OsgEarthNet.uav[27] utilizationEnergyOverdrawMaintenance 0
scalar OsgEarthNet.uav[27] utilizationCountMissions 39
scalar OsgEarthNet.uav[27] utilizationCountManeuversMission 439
scalar OsgEarthNet.uav[27] utilizationCountManeuversMaintenance 79
scalar OsgEarthNet.uav[27] utilizationCountChargeState 39
scalar OsgEarthNet.uav[27] utilizationCountOverdrawnAfterMission 0
scalar OsgEarthNet.uav[27] utilizationCountIdleState 40
scalar OsgEarthNet.uav[27] utilizationFail 0
scalar OsgEarthNet.uav[27] simulationTime 259200
scalar OsgEarthNet.uav[28] utilizationSecMission 12840.186957342
scalar OsgEarthNet.uav[28] utilizationSecMaintenance 5445.0675124815
scalar OsgEarthNet.uav[28] utilizationSecCharge 66820
scalar OsgEarthNet.uav[28] utilizationSecIdle 174094.74453018
scalar OsgEarthNet.uav[28] utilizationEnergyMission 58958.653060913
scalar OsgEarthNet.uav[28] utilizationEnergyMaintenance 24906.737628937
scalar OsgEarthNet.uav[28] utilizationEnergyCharge 83637.740234375
scalar OsgEarthNet.uav[28] utilizationEnergyOverdrawMission 0
scalar OsgEarthNet.uav[28] utilizationEnergyOverdrawMaintenance 0
scalar OsgEarthNet.uav[28] utilizationCountMissions 18
scalar OsgEarthNet.uav[28] utilizationCountManeuversMission 209
scalar OsgEarthNet.uav[28] utilizationCountManeuversMaintenance 36
scalar OsgEarthNet.uav[28] utilizationCountChargeState 18
scalar OsgEarthNet.uav[28] utilizationCountOverdrawnAfterMission 0
scalar OsgEarthNet.uav[28] utilizationCountIdleState 19
scalar OsgEarthNet.uav[28] utilizationFail 0
scalar OsgEarthNet.uav[28] simulationTime 259200
scalar OsgEarthNet.uav[29] utilizationSecMission 29131.75946507
scalar OsgEarthNet.uav[29] utilizationSecMaintenance 15593.980305034
scalar OsgEarthNet.uav[29] utilizationSecCharge 166890
scalar OsgEarthNet.uav[29] utilizationSecIdle 47584.259229896
scalar OsgEarthNet.uav[29] utilizationEnergyMission 134738.46961594
scalar OsgEarthNet.uav[29] utilizationEnergyMaintenance 73967.365779877
scalar OsgEarthNet.uav[29] utilizationEnergyCharge 208846.02783203
scalar OsgEarthNet.uav[29] utilizationEnergyOverdrawMission 0
scalar OsgEarthNet.uav[29] utilizationEnergyOverdrawMaintenance 0
scalar OsgEarthNet.uav[29] utilizationCountMissions 45
scalar OsgEarthNet.uav[29] utilizationCountManeuversMission 476
scalar OsgEarthNet.uav[29] utilizationCountManeuversMaintenance 89
scalar OsgEarthNet.uav[29] utilizationCountChargeState 45
scalar OsgEarthNet.uav[29] utilizationCountOverdrawnAfterMission 0
scalar OsgEarthNet.uav[29] utilizationCountIdleState 46
scalar OsgEarthNet.uav[29] utilizationFail 0
scalar OsgEarthNet.uav[29] simulationTime 259200
scalar OsgEarthNet.uav[30] utilizationSecMission 545.05972348896
scalar OsgEarthNet.uav[30] utilizationSecMaintenance 427.36308650536
scalar OsgEarthNet.uav[30] utilizationSecCharge 3750
scalar OsgEarthNet.uav[30] utilizationSecIdle 254477.57619001
scalar OsgEarthNet.uav[30] utilizationEnergyMission 2849.4264221191
scalar OsgEarthNet.uav[30] utilizationEnergyMaintenance 2017.6318893433
scalar OsgEarthNet.uav[30] utilizationEnergyCharge 4698.513671875
scalar OsgEarthNet.uav[30] utilizationEnergyOverdrawMission 0
scalar OsgEarthNet.uav[30] utilizationEnergyOverdrawMaintenance 0
scalar OsgEarthNet.uav[30] utilizationCountMissions 1
scalar OsgEarthNet.uav[30] utilizationCountManeuversMission 9
scalar OsgEarthNet.uav[30] utilizationCountManeuversMaintenance 2
scalar OsgEarthNet.uav[30] utilizationCountChargeState 1
scalar OsgEarthNet.uav[30] utilizationCountOverdrawnAfterMission 0
scalar OsgEarthNet.uav[30] utilizationCountIdleState 2
scalar OsgEarthNet.uav[30] utilizationFail 0
scalar OsgEarthNet.uav[30] simulationTime 259200
scalar OsgEarthNet.uav[31] utilizationSecMission 5455.5765667358
scalar OsgEarthNet.uav[31] utilizationSecMaintenance 2476.1868928755
scalar OsgEarthNet.uav[31] utilizationSecCharge 29810
scalar OsgEarthNet.uav[31] utilizationSecIdle 221458.23554039
scalar OsgEarthNet.uav[31] utilizationEnergyMission 25314.073814392
scalar OsgEarthNet.uav[31] utilizationEnergyMaintenance 12248.12097168
scalar OsgEarthNet.uav[31] utilizationEnergyCharge 37383.380371094
scalar OsgEarthNet.uav[31] utilizationEnergyOverdrawMission 0
scalar OsgEarthNet.uav[31] utilizationEnergyOverdrawMaintenance 0
scalar OsgEarthNet.uav[31] utilizationCountMissions 8
scalar OsgEarthNet.uav[31] utilizationCountManeuversMission 90
scalar OsgEarthNet.uav[31] utilizationCountManeuversMaintenance 16
scalar OsgEarthNet.uav[31] utilizationCountChargeState 8
scalar OsgEarthNet.uav[31] utilizationCountOverdrawnAfterMission 0
scalar OsgEarthNet.uav[31] utilizationCountIdleState 9
scalar OsgEarthNet.uav[31] utilizationFail 0
scalar OsgEarthNet.uav[31] simulationTime 259200
scalar OsgEarthNet.uav[32] utilizationSecMission 31188.150001115
scalar OsgEarthNet.uav[32] utilizationSecMaintenance 14721.988715951
scalar OsgEarthNet.uav[32] utilizationSecCharge 167367.86028293
scalar OsgEarthNet.uav[32] utilizationSecIdle 45922
scalar OsgEarthNet.uav[32] utilizationEnergyMission 144255.04652662
scalar OsgEarthNet.uav[32] utilizationEnergyMaintenance 68629.147472382
scalar OsgEarthNet.uav[32] utilizationEnergyCharge 211687.37866211
scalar OsgEarthNet.uav[32] utilizationEnergyOverdrawMission 0
scalar OsgEarthNet.uav[32] utilizationEnergyOverdrawMaintenance 0
scalar OsgEarthNet.uav[32] utilizationCountMissions 45
scalar OsgEarthNet.uav[32] utilizationCountManeuversMission 504
scalar OsgEarthNet.uav[32] utilizationCountManeuversMaintenance 89
scalar OsgEarthNet.uav[32] utilizationCountChargeState 45
scalar OsgEarthNet.uav[32] utilizationCountOverdrawnAfterMission 0
scalar OsgEarthNet.uav[32] utilizationCountIdleState 45
scalar OsgEarthNet.uav[32] utilizationFail 0
scalar OsgEarthNet.uav[32] simulationTime 259200
scalar OsgEarthNet.uav[33] utilizationSecMission 760.62515258028
scalar OsgEarthNet.uav[33] utilizationSecMaintenance 223.6438949726
scalar OsgEarthNet.uav[33] utilizationSecCharge 3800
scalar OsgEarthNet.uav[33] utilizationSecIdle 254415.72995245
scalar OsgEarthNet.uav[33] utilizationEnergyMission 3682.6729736328
scalar OsgEarthNet.uav[33] utilizationEnergyMaintenance 1109.1466789246
scalar OsgEarthNet.uav[33] utilizationEnergyCharge 4791.8203125
scalar OsgEarthNet.uav[33] utilizationEnergyOverdrawMission 0
scalar OsgEarthNet.uav[33] utilizationEnergyOverdrawMaintenance 0
scalar OsgEarthNet.uav[33] utilizationCountMissions 1
scalar OsgEarthNet.uav[33] utilizationCountManeuversMission 12
scalar OsgEarthNet.uav[33] utilizationCountManeuversMaintenance 2
scalar OsgEarthNet.uav[33] utilizationCountChargeState 1
scalar OsgEarthNet.uav[33] utilizationCountOverdrawnAfterMission 0
scalar OsgEarthNet.uav[33] utilizationCountIdleState 2
scalar OsgEarthNet.uav[33] utilizationFail 0
scalar OsgEarthNet.uav[33] simulationTime 259200
scalar OsgEarthNet.uav[34] utilizationSecMission 29188.035188018
scalar OsgEarthNet.uav[34] utilizationSecMaintenance 13581.475366964
scalar OsgEarthNet.uav[34] utilizationSecCharge 158926.73096401
scalar OsgEarthNet.uav[34] utilizationSecIdle 57503.757481006
scalar OsgEarthNet.uav[34] utilizationEnergyMission 135450.0196228
scalar OsgEarthNet.uav[34] utilizationEnergyMaintenance 63993.770462036
scalar OsgEarthNet.uav[34] utilizationEnergyCharge 199635.46704102
scalar OsgEarthNet.uav[34] utilizationEnergyOverdrawMission 0
scalar OsgEarthNet.uav[34] utilizationEnergyOverdrawMaintenance 0
scalar OsgEarthNet.uav[34] utilizationCountMissions 43
scalar OsgEarthNet.uav[34] utilizationCountManeuversMission 483
scalar OsgEarthNet.uav[34] utilizationCountManeuversMaintenance 86
scalar OsgEarthNet.uav[34] utilizationCountChargeState 43
scalar OsgEarthNet.uav[34] utilizationCountOverdrawnAfterMission 0
scalar OsgEarthNet.uav[34] utilizationCountIdleState 43
scalar OsgEarthNet.uav[34] utilizationFail 0
scalar OsgEarthNet.uav[34] simulationTime 259200
scalar OsgEarthNet.uav[35] utilizationSecMission 17520.128048231
scalar OsgEarthNet.uav[35] utilizationSecMaintenance 9627.4459141645
scalar OsgEarthNet.uav[35] utilizationSecCharge 100990
scalar OsgEarthNet.uav[35] utilizationSecIdle 131062.4250376
scalar OsgEarthNet.uav[35] utilizationEnergyMission 80872.847766876
scalar OsgEarthNet.uav[35] utilizationEnergyMaintenance 45744.056186676
scalar OsgEarthNet.uav[35] utilizationEnergyCharge 126798.66796875
scalar OsgEarthNet.uav[35] utilizationEnergyOverdrawMission 0
scalar OsgEarthNet.uav[35] utilizationEnergyOverdrawMaintenance 0
scalar OsgEarthNet.uav[35] utilizationCountMissions 27
scalar OsgEarthNet.uav[35] utilizationCountManeuversMission 281
scalar OsgEarthNet.uav[35] utilizationCountManeuversMaintenance 54
scalar OsgEarthNet.uav[35] utilizationCountChargeState 27
scalar OsgEarthNet.uav[35] utilizationCountOverdrawnAfterMission 0
scalar OsgEarthNet.uav[35] utilizationCountIdleState 28
scalar OsgEarthNet.uav[35] utilizationFail 0
scalar OsgEarthNet.uav[35] simulationTime 259200
scalar OsgEarthNet.uav[36] utilizationSecMission 702.6942798579
scalar OsgEarthNet.uav[36] utilizationSecMaintenance 282.29565405678
scalar OsgEarthNet.uav[36] utilizationSecCharge 3790
scalar OsgEarthNet.uav[36] utilizationSecIdle 254425.00906609
scalar OsgEarthNet.uav[36] utilizationEnergyMission 3376.9399261475
scalar OsgEarthNet.uav[36] utilizationEnergyMaintenance 1393.8214836121
scalar OsgEarthNet.uav[36] utilizationEnergyCharge 4770.7626953125
scalar OsgEarthNet.uav[36] utilizationEnergyOverdrawMission 0
scalar OsgEarthNet.uav[36] utilizationEnergyOverdrawMaintenance 0
scalar OsgEarthNet.uav[36] utilizationCountMissions 1
scalar OsgEarthNet.uav[36] utilizationCountManeuversMission 10
scalar OsgEarthNet.uav[36] utilizationCountManeuversMaintenance 2
scalar OsgEarthNet.uav[36] utilizationCountChargeState 1
scalar OsgEarthNet.uav[36] utilizationCountOverdrawnAfterMission 0
scalar OsgEarthNet.uav[36] utilizationCountIdleState 2
scalar OsgEarthNet.uav[36] utilizationFail 0
scalar OsgEarthNet.uav[36] simulationTime 259200
scalar OsgEarthNet.uav[37] utilizationSecMission 26533.555180674
scalar OsgEarthNet.uav[37] utilizationSecMaintenance 11486.434885164
scalar OsgEarthNet.uav[37] utilizationSecCharge 142220
scalar OsgEarthNet.uav[37] utilizationSecIdle 78960.008934162
scalar OsgEarthNet.uav[37] utilizationEnergyMission 124258.2803421
scalar OsgEarthNet.uav[37] utilizationEnergyMaintenance 53883.985740662
scalar OsgEarthNet.uav[37] utilizationEnergyCharge 178238.30517578
scalar OsgEarthNet.uav[37] utilizationEnergyOverdrawMission 0
scalar OsgEarthNet.uav[37] utilizationEnergyOverdrawMaintenance 0
scalar OsgEarthNet.uav[37] utilizationCountMissions 38
scalar OsgEarthNet.uav[37] utilizationCountManeuversMission 434
scalar OsgEarthNet.uav[37] utilizationCountManeuversMaintenance 76
scalar OsgEarthNet.uav[37] utilizationCountChargeState 38
scalar OsgEarthNet.uav[37] utilizationCountOverdrawnAfterMission 0
scalar OsgEarthNet.uav[37] utilizationCountIdleState 39
scalar OsgEarthNet.uav[37] utilizationFail 0
scalar OsgEarthNet.uav[37] simulationTime 259200
scalar OsgEarthNet.uav[38] utilizationSecMission 694.00169469977
scalar OsgEarthNet.uav[38] utilizationSecMaintenance 338.49695459722
scalar OsgEarthNet.uav[38] utilizationSecCharge 3860
scalar OsgEarthNet.uav[38] utilizationSecIdle 254307.5003507
scalar OsgEarthNet.uav[38] utilizationEnergyMission 3245.087638855
scalar OsgEarthNet.uav[38] utilizationEnergyMaintenance 1640.6435050964
scalar OsgEarthNet.uav[38] utilizationEnergyCharge 4885.7358398438
scalar OsgEarthNet.uav[38] utilizationEnergyOverdrawMission 0
scalar OsgEarthNet.uav[38] utilizationEnergyOverdrawMaintenance 0
scalar OsgEarthNet.uav[38] utilizationCountMissions 1
scalar OsgEarthNet.uav[38] utilizationCountManeuversMission 13
scalar OsgEarthNet.uav[38] utilizationCountManeuversMaintenance 2
scalar OsgEarthNet.uav[38] utilizationCountChargeState 1
scalar OsgEarthNet.uav[38] utilizationCountOverdrawnAfterMission 0
scalar OsgEarthNet.uav[38] utilizationCountIdleState 2
scalar OsgEarthNet.uav[38] utilizationFail 0
scalar OsgEarthNet.uav[38] simulationTime 259200
scalar OsgEarthNet.uav[39] utilizationSecMission 760.62515258028
scalar OsgEarthNet.uav[39] utilizationSecMaintenance 291.95923480269
scalar OsgEarthNet.uav[39] utilizationSecCharge 3730
scalar OsgEarthNet.uav[39] utilizationSecIdle 254417.41461262
scalar OsgEarthNet.uav[39] utilizationEnergyMission 3298.621421814
scalar OsgEarthNet.uav[39] utilizationEnergyMaintenance 1382.928062439
scalar OsgEarthNet.uav[39] utilizationEnergyCharge 4681.5463867188
scalar OsgEarthNet.uav[39] utilizationEnergyOverdrawMission 0
scalar OsgEarthNet.uav[39] utilizationEnergyOverdrawMaintenance 0
scalar OsgEarthNet.uav[39] utilizationCountMissions 1
scalar OsgEarthNet.uav[39] utilizationCountManeuversMission 12
scalar OsgEarthNet.uav[39] utilizationCountManeuversMaintenance 2
scalar OsgEarthNet.uav[39] utilizationCountChargeState 1
scalar OsgEarthNet.uav[39] utilizationCountOverdrawnAfterMission 0
scalar OsgEarthNet.uav[39] utilizationCountIdleState 2
scalar OsgEarthNet.uav[39] utilizationFail 0
scalar OsgEarthNet.uav[39] simulationTime 259200
scalar OsgEarthNet.uav[40] utilizationSecMission 702.6942798579
scalar OsgEarthNet.uav[40] utilizationSecMaintenance 282.29565405678
scalar OsgEarthNet.uav[40] utilizationSecCharge 3760
scalar OsgEarthNet.uav[40] utilizationSecIdle 254455.00906609
scalar OsgEarthNet.uav[40] utilizationEnergyMission 3210.1391296387
scalar OsgEarthNet.uav[40] utilizationEnergyMaintenance 1524.8605155945
scalar OsgEarthNet.uav[40] utilizationEnergyCharge 4735.0029296875
scalar OsgEarthNet.uav[40] utilizationEnergyOverdrawMission 0
scalar OsgEarthNet.uav[40] utilizationEnergyOverdrawMaintenance 0
scalar OsgEarthNet.uav[40] utilizationCountMissions 1
scalar OsgEarthNet.uav[40] utilizationCountManeuversMission 10
scalar OsgEarthNet.uav[40] utilizationCountManeuversMaintenance 2
scalar OsgEarthNet.uav[40] utilizationCountChargeState 1
scalar OsgEarthNet.uav[40] utilizationCountOverdrawnAfterMission 0
scalar OsgEarthNet.uav[40] utilizationCountIdleState 2
scalar OsgEarthNet.uav[40] utilizationFail 0
scalar OsgEarthNet.uav[40] simulationTime 259200
scalar OsgEarthNet.uav[41] utilizationSecMission 648.09208854277
scalar OsgEarthNet.uav[41] utilizationSecMaintenance 399.17886017656
scalar OsgEarthNet.uav[41] utilizationSecCharge 3900
scalar OsgEarthNet.uav[41] utilizationSecIdle 254252.72805128
scalar OsgEarthNet.uav[41] utilizationEnergyMission 3064.7004089355
scalar OsgEarthNet.uav[41] utilizationEnergyMaintenance 1890.5432548523
scalar OsgEarthNet.uav[41] utilizationEnergyCharge 4947.9560546875
scalar OsgEarthNet.uav[41] utilizationEnergyOverdrawMission 0
scalar OsgEarthNet.uav[41] utilizationEnergyOverdrawMaintenance 0
scalar OsgEarthNet.uav[41] utilizationCountMissions 1
scalar OsgEarthNet.uav[41] utilizationCountManeuversMission 10
scalar OsgEarthNet.uav[41] utilizationCountManeuversMaintenance 2
scalar OsgEarthNet.uav[41] utilizationCountChargeState 1
scalar OsgEarthNet.uav[41] utilizationCountOverdrawnAfterMission 0
scalar OsgEarthNet.uav[41] utilizationCountIdleState 2
scalar OsgEarthNet.uav[41] utilizationFail 0
scalar OsgEarthNet.uav[41] simulationTime 259200
scalar OsgEarthNet.uav[42] utilizationSecMission 828.1936691689
scalar OsgEarthNet.uav[42] utilizationSecMaintenance 156.97870384097
scalar OsgEarthNet.uav[42] utilizationSecCharge 3640
scalar OsgEarthNet.uav[42] utilizationSecIdle 254574.82662699
scalar OsgEarthNet.uav[42] utilizationEnergyMission 3861.3665618896
scalar OsgEarthNet.uav[42] utilizationEnergyMaintenance 708.33353424072
scalar OsgEarthNet.uav[42] utilizationEnergyCharge 4516.7138671875
scalar OsgEarthNet.uav[42] utilizationEnergyOverdrawMission 0
scalar OsgEarthNet.uav[42] utilizationEnergyOverdrawMaintenance 0
scalar OsgEarthNet.uav[42] utilizationCountMissions 1
scalar OsgEarthNet.uav[42] utilizationCountManeuversMission 13
scalar OsgEarthNet.uav[42] utilizationCountManeuversMaintenance 2
scalar OsgEarthNet.uav[42] utilizationCountChargeState 1
scalar OsgEarthNet.uav[42] utilizationCountOverdrawnAfterMission 0
scalar OsgEarthNet.uav[42] utilizationCountIdleState 2
scalar OsgEarthNet.uav[42] utilizationFail 0
scalar OsgEarthNet.uav[42] simulationTime 259200
scalar OsgEarthNet.uav[43] utilizationSecMission 545.05972348896
scalar OsgEarthNet.uav[43] utilizationSecMaintenance 427.36308650536
scalar OsgEarthNet.uav[43] utilizationSecCharge 3630
scalar OsgEarthNet.uav[43] utilizationSecIdle 254597.57619001
scalar OsgEarthNet.uav[43] utilizationEnergyMission 2414.3448791504
scalar OsgEarthNet.uav[43] utilizationEnergyMaintenance 2004.9795150757
scalar OsgEarthNet.uav[43] utilizationEnergyCharge 4502.3779296875
scalar OsgEarthNet.uav[43] utilizationEnergyOverdrawMission 0
scalar OsgEarthNet.uav[43] utilizationEnergyOverdrawMaintenance 0
scalar OsgEarthNet.uav[43] utilizationCountMissions 1
scalar OsgEarthNet.uav[43] utilizationCountManeuversMission 9
scalar OsgEarthNet.uav[43] utilizationCountManeuversMaintenance 2
scalar OsgEarthNet.uav[43] utilizationCountChargeState 1
scalar OsgEarthNet.uav[43] utilizationCountOverdrawnAfterMission 0
scalar OsgEarthNet.uav[43] utilizationCountIdleState 2
scalar OsgEarthNet.uav[43] utilizationFail 0
scalar OsgEarthNet.uav[43] simulationTime 259200
scalar OsgEarthNet.uav[44] utilizationSecMission 694.00169469977
scalar OsgEarthNet.uav[44] utilizationSecMaintenance 297.56999528428
scalar OsgEarthNet.uav[44] utilizationSecCharge 3730
scalar OsgEarthNet.uav[44] utilizationSecIdle 254478.42731002
scalar OsgEarthNet.uav[44] utilizationEnergyMission 3261.3416366577
scalar OsgEarthNet.uav[44] utilizationEnergyMaintenance 1394.7491569519
scalar OsgEarthNet.uav[44] utilizationEnergyCharge 4656.0932617188
scalar OsgEarthNet.uav[44] utilizationEnergyOverdrawMission 0
scalar OsgEarthNet.uav[44] utilizationEnergyOverdrawMaintenance 0
scalar OsgEarthNet.uav[44] utilizationCountMissions 1
scalar OsgEarthNet.uav[44] utilizationCountManeuversMission 13
scalar OsgEarthNet.uav[44] utilizationCountManeuversMaintenance 2
scalar OsgEarthNet.uav[44] utilizationCountChargeState 1
scalar OsgEarthNet.uav[44] utilizationCountOverdrawnAfterMission 0
scalar OsgEarthNet.uav[44] utilizationCountIdleState 2
scalar OsgEarthNet.uav[44] utilizationFail 0
scalar OsgEarthNet.uav[44] simulationTime 259200
scalar OsgEarthNet.uav[45] utilizationSecMission 26634.178675529
scalar OsgEarthNet.uav[45] utilizationSecMaintenance 14533.287113522
scalar OsgEarthNet.uav[45] utilizationSecCharge 149170
scalar OsgEarthNet.uav[45] utilizationSecIdle 68862.533210949
scalar OsgEarthNet.uav[45] utilizationEnergyMission 124135.7625351
scalar OsgEarthNet.uav[45] utilizationEnergyMaintenance 67732.992502849
scalar OsgEarthNet.uav[45] utilizationEnergyCharge 186950.8112793
scalar OsgEarthNet.uav[45] utilizationEnergyOverdrawMission 0
scalar OsgEarthNet.uav[45] utilizationEnergyOverdrawMaintenance 0
scalar OsgEarthNet.uav[45] utilizationCountMissions 41
scalar OsgEarthNet.uav[45] utilizationCountManeuversMission 436
scalar OsgEarthNet.uav[45] utilizationCountManeuversMaintenance 82
scalar OsgEarthNet.uav[45] utilizationCountChargeState 40
scalar OsgEarthNet.uav[45] utilizationCountOverdrawnAfterMission 0
scalar OsgEarthNet.uav[45] utilizationCountIdleState 41
scalar OsgEarthNet.uav[45] utilizationFail 0
scalar OsgEarthNet.uav[45] simulationTime 259200
scalar OsgEarthNet.uav[46] utilizationSecMission 663.26978133574
scalar OsgEarthNet.uav[46] utilizationSecMaintenance 403.14107001612
scalar OsgEarthNet.uav[46] utilizationSecCharge 3760
scalar OsgEarthNet.uav[46] utilizationSecIdle 254373.58814865
scalar OsgEarthNet.uav[46] utilizationEnergyMission 2829.2138671875
scalar OsgEarthNet.uav[46] utilizationEnergyMaintenance 1860.4217758179
scalar OsgEarthNet.uav[46] utilizationEnergyCharge 4689.6416015625
scalar OsgEarthNet.uav[46] utilizationEnergyOverdrawMission 0
scalar OsgEarthNet.uav[46] utilizationEnergyOverdrawMaintenance 0
scalar OsgEarthNet.uav[46] utilizationCountMissions 1
scalar OsgEarthNet.uav[46] utilizationCountManeuversMission 10
scalar OsgEarthNet.uav[46] utilizationCountManeuversMaintenance 2
scalar OsgEarthNet.uav[46] utilizationCountChargeState 1
scalar OsgEarthNet.uav[46] utilizationCountOverdrawnAfterMission 0
scalar OsgEarthNet.uav[46] utilizationCountIdleState 2
scalar OsgEarthNet.uav[46] utilizationFail 0
scalar OsgEarthNet.uav[46] simulationTime 259200
scalar OsgEarthNet.uav[47] utilizationSecMission 21055.978205125
scalar OsgEarthNet.uav[47] utilizationSecMaintenance 11721.994518482
scalar OsgEarthNet.uav[47] utilizationSecCharge 123050
scalar OsgEarthNet.uav[47] utilizationSecIdle 103372.02627639
scalar OsgEarthNet.uav[47] utilizationEnergyMission 97683.805465698
scalar OsgEarthNet.uav[47] utilizationEnergyMaintenance 56732.089733124
scalar OsgEarthNet.uav[47] utilizationEnergyCharge 154412.82128906
scalar OsgEarthNet.uav[47] utilizationEnergyOverdrawMission 0
scalar OsgEarthNet.uav[47] utilizationEnergyOverdrawMaintenance 0
scalar OsgEarthNet.uav[47] utilizationCountMissions 33
scalar OsgEarthNet.uav[47] utilizationCountManeuversMission 339
scalar OsgEarthNet.uav[47] utilizationCountManeuversMaintenance 66
scalar OsgEarthNet.uav[47] utilizationCountChargeState 33
scalar OsgEarthNet.uav[47] utilizationCountOverdrawnAfterMission 0
scalar OsgEarthNet.uav[47] utilizationCountIdleState 34
scalar OsgEarthNet.uav[47] utilizationFail 0
scalar OsgEarthNet.uav[47] simulationTime 259200
scalar OsgEarthNet.uav[48] utilizationSecMission 3752.7514773352
scalar OsgEarthNet.uav[48] utilizationSecMaintenance 1446.0690346352
scalar OsgEarthNet.uav[48] utilizationSecCharge 18790
scalar OsgEarthNet.uav[48] utilizationSecIdle 235211.17848803
scalar OsgEarthNet.uav[48] utilizationEnergyMission 16960.795837402
scalar OsgEarthNet.uav[48] utilizationEnergyMaintenance 6833.7081871033
scalar OsgEarthNet.uav[48] utilizationEnergyCharge 23715.997070312
scalar OsgEarthNet.uav[48] utilizationEnergyOverdrawMission 0
scalar OsgEarthNet.uav[48] utilizationEnergyOverdrawMaintenance 0
scalar OsgEarthNet.uav[48] utilizationCountMissions 5
scalar OsgEarthNet.uav[48] utilizationCountManeuversMission 59
scalar OsgEarthNet.uav[48] utilizationCountManeuversMaintenance 10
scalar OsgEarthNet.uav[48] utilizationCountChargeState 5
scalar OsgEarthNet.uav[48] utilizationCountOverdrawnAfterMission 0
scalar OsgEarthNet.uav[48] utilizationCountIdleState 6
scalar OsgEarthNet.uav[48] utilizationFail 0
scalar OsgEarthNet.uav[48] simulationTime 259200
scalar OsgEarthNet.uav[49] utilizationSecMission 698.84532193436
scalar OsgEarthNet.uav[49] utilizationSecMaintenance 323.03163670533
scalar OsgEarthNet.uav[49] utilizationSecCharge 3820
scalar OsgEarthNet.uav[49] utilizationSecIdle 254358.12204136
scalar OsgEarthNet.uav[49] utilizationEnergyMission 3386.106552124
scalar OsgEarthNet.uav[49] utilizationEnergyMaintenance 1436.2717819214
scalar OsgEarthNet.uav[49] utilizationEnergyCharge 4822.380859375
scalar OsgEarthNet.uav[49] utilizationEnergyOverdrawMission 0
scalar OsgEarthNet.uav[49] utilizationEnergyOverdrawMaintenance 0
scalar OsgEarthNet.uav[49] utilizationCountMissions 1
scalar OsgEarthNet.uav[49] utilizationCountManeuversMission 10
scalar OsgEarthNet.uav[49] utilizationCountManeuversMaintenance 2
scalar OsgEarthNet.uav[49] utilizationCountChargeState 1
scalar OsgEarthNet.uav[49] utilizationCountOverdrawnAfterMission 0
scalar OsgEarthNet.uav[49] utilizationCountIdleState 2
scalar OsgEarthNet.uav[49] utilizationFail 0
scalar OsgEarthNet.uav[49] simulationTime 259200
scalar OsgEarthNet.uav[50] utilizationSecMission 684.4732299383
scalar OsgEarthNet.uav[50] utilizationSecMaintenance 298.56834692969
scalar OsgEarthNet.uav[50] utilizationSecCharge 3740
scalar OsgEarthNet.uav[50] utilizationSecIdle 254476.95742313
scalar OsgEarthNet.uav[50] utilizationEnergyMission 3274.6673126221
scalar OsgEarthNet.uav[50] utilizationEnergyMaintenance 1407.512260437
scalar OsgEarthNet.uav[50] utilizationEnergyCharge 4682.1806640625
scalar OsgEarthNet.uav[50] utilizationEnergyOverdrawMission 0
scalar OsgEarthNet.uav[50] utilizationEnergyOverdrawMaintenance 0
scalar OsgEarthNet.uav[50] utilizationCountMissions 1
scalar OsgEarthNet.uav[50] utilizationCountManeuversMission 11
scalar OsgEarthNet.uav[50] utilizationCountManeuversMaintenance 2
scalar OsgEarthNet.uav[50] utilizationCountChargeState 1
scalar OsgEarthNet.uav[50] utilizationCountOverdrawnAfterMission 0
scalar OsgEarthNet.uav[50] utilizationCountIdleState 2
scalar OsgEarthNet.uav[50] utilizationFail 0
scalar OsgEarthNet.uav[50] simulationTime 259200
scalar OsgEarthNet.uav[51] utilizationSecMission 31863.107809884
scalar OsgEarthNet.uav[51] utilizationSecMaintenance 14484.720663111
scalar OsgEarthNet.uav[51] utilizationSecCharge 167870.170527
scalar OsgEarthNet.uav[51] utilizationSecIdle 44982
scalar OsgEarthNet.uav[51] utilizationEnergyMission 145149.09007263
scalar OsgEarthNet.uav[51] utilizationEnergyMaintenance 67355.341876984
scalar OsgEarthNet.uav[51] utilizationEnergyCharge 210396.03588867
scalar OsgEarthNet.uav[51] utilizationEnergyOverdrawMission 0
scalar OsgEarthNet.uav[51] utilizationEnergyOverdrawMaintenance 0
scalar OsgEarthNet.uav[51] utilizationCountMissions 46
scalar OsgEarthNet.uav[51] utilizationCountManeuversMission 516
scalar OsgEarthNet.uav[51] utilizationCountManeuversMaintenance 91
scalar OsgEarthNet.uav[51] utilizationCountChargeState 46
scalar OsgEarthNet.uav[51] utilizationCountOverdrawnAfterMission 0
scalar OsgEarthNet.uav[51] utilizationCountIdleState 46
scalar OsgEarthNet.uav[51] utilizationFail 0
scalar OsgEarthNet.uav[51] simulationTime 259200
scalar OsgEarthNet.uav[52] utilizationSecMission 26914.886561794
scalar OsgEarthNet.uav[52] utilizationSecMaintenance 14863.306349021
scalar OsgEarthNet.uav[52] utilizationSecCharge 154874.99802308
scalar OsgEarthNet.uav[52] utilizationSecIdle 62546.808066102
scalar OsgEarthNet.uav[52] utilizationEnergyMission 125677.40390778
scalar OsgEarthNet.uav[52] utilizationEnergyMaintenance 69431.546882629
scalar OsgEarthNet.uav[52] utilizationEnergyCharge 194763.85644531
scalar OsgEarthNet.uav[52] utilizationEnergyOverdrawMission 0
scalar OsgEarthNet.uav[52] utilizationEnergyOverdrawMaintenance 0
scalar OsgEarthNet.uav[52] utilizationCountMissions 42
scalar OsgEarthNet.uav[52] utilizationCountManeuversMission 439
scalar OsgEarthNet.uav[52] utilizationCountManeuversMaintenance 84
scalar OsgEarthNet.uav[52] utilizationCountChargeState 42
scalar OsgEarthNet.uav[52] utilizationCountOverdrawnAfterMission 0
scalar OsgEarthNet.uav[52] utilizationCountIdleState 42
scalar OsgEarthNet.uav[52] utilizationFail 0
scalar OsgEarthNet.uav[52] simulationTime 259200
scalar OsgEarthNet.uav[53] utilizationSecMission 760.62515258028
scalar OsgEarthNet.uav[53] utilizationSecMaintenance 223.6438949726
scalar OsgEarthNet.uav[53] utilizationSecCharge 3800
scalar OsgEarthNet.uav[53] utilizationSecIdle 254415.72995245
scalar OsgEarthNet.uav[53] utilizationEnergyMission 3669.1564559937
scalar OsgEarthNet.uav[53] utilizationEnergyMaintenance 1135.3064689636
scalar OsgEarthNet.uav[53] utilizationEnergyCharge 4804.4643554688
scalar OsgEarthNet.uav[53] utilizationEnergyOverdrawMission 0
scalar OsgEarthNet.uav[53] utilizationEnergyOverdrawMaintenance 0
scalar OsgEarthNet.uav[53] utilizationCountMissions 1
scalar OsgEarthNet.uav[53] utilizationCountManeuversMission 12
scalar OsgEarthNet.uav[53] utilizationCountManeuversMaintenance 2
scalar OsgEarthNet.uav[53] utilizationCountChargeState 1
scalar OsgEarthNet.uav[53] utilizationCountOverdrawnAfterMission 0
scalar OsgEarthNet.uav[53] utilizationCountIdleState 2
scalar OsgEarthNet.uav[53] utilizationFail 0
scalar OsgEarthNet.uav[53] simulationTime 259200
scalar OsgEarthNet.uav[54] utilizationSecMission 26772.108588402
scalar OsgEarthNet.uav[54] utilizationSecMaintenance 15901.051755431
scalar OsgEarthNet.uav[54] utilizationSecCharge 155420
scalar OsgEarthNet.uav[54] utilizationSecIdle 61106.838656167
scalar OsgEarthNet.uav[54] utilizationEnergyMission 124107.58200836
scalar OsgEarthNet.uav[54] utilizationEnergyMaintenance 74792.362060327
scalar OsgEarthNet.uav[54] utilizationEnergyCharge 194452.13330078
scalar OsgEarthNet.uav[54] utilizationEnergyOverdrawMission 0
scalar OsgEarthNet.uav[54] utilizationEnergyOverdrawMaintenance 0
scalar OsgEarthNet.uav[54] utilizationCountMissions 43
scalar OsgEarthNet.uav[54] utilizationCountManeuversMission 431
scalar OsgEarthNet.uav[54] utilizationCountManeuversMaintenance 86
scalar OsgEarthNet.uav[54] utilizationCountChargeState 42
scalar OsgEarthNet.uav[54] utilizationCountOverdrawnAfterMission 0
scalar OsgEarthNet.uav[54] utilizationCountIdleState 43
scalar OsgEarthNet.uav[54] utilizationFail 0
scalar OsgEarthNet.uav[54] simulationTime 259200
scalar OsgEarthNet.uav[55] utilizationSecMission 30877.344707556
scalar OsgEarthNet.uav[55] utilizationSecMaintenance 12914.297689648
scalar OsgEarthNet.uav[55] utilizationSecCharge 158993.85866162
scalar OsgEarthNet.uav[55] utilizationSecIdle 56414.497941176
scalar OsgEarthNet.uav[55] utilizationEnergyMission 141172.06962967
scalar OsgEarthNet.uav[55] utilizationEnergyMaintenance 59852.650299072
scalar OsgEarthNet.uav[55] utilizationEnergyCharge 200242.1953125
scalar OsgEarthNet.uav[55] utilizationEnergyOverdrawMission 0
scalar OsgEarthNet.uav[55] utilizationEnergyOverdrawMaintenance 0
scalar OsgEarthNet.uav[55] utilizationCountMissions 43
scalar OsgEarthNet.uav[55] utilizationCountManeuversMission 507
scalar OsgEarthNet.uav[55] utilizationCountManeuversMaintenance 86
scalar OsgEarthNet.uav[55] utilizationCountChargeState 43
scalar OsgEarthNet.uav[55] utilizationCountOverdrawnAfterMission 0
scalar OsgEarthNet.uav[55] utilizationCountIdleState 43
scalar OsgEarthNet.uav[55] utilizationFail 0
scalar OsgEarthNet.uav[55] simulationTime 259200
scalar OsgEarthNet.uav[56] utilizationSecMission 27421.151607555
scalar OsgEarthNet.uav[56] utilizationSecMaintenance 12106.424349594
scalar OsgEarthNet.uav[56] utilizationSecCharge 146130
scalar OsgEarthNet.uav[56] utilizationSecIdle 73542.423042852
scalar OsgEarthNet.uav[56] utilizationEnergyMission 127546.60074313
scalar OsgEarthNet.uav[56] utilizationEnergyMaintenance 56794.495697021
scalar OsgEarthNet.uav[56] utilizationEnergyCharge 183647.83203125
scalar OsgEarthNet.uav[56] utilizationEnergyOverdrawMission 0
scalar OsgEarthNet.uav[56] utilizationEnergyOverdrawMaintenance 0
scalar OsgEarthNet.uav[56] utilizationCountMissions 39
scalar OsgEarthNet.uav[56] utilizationCountManeuversMission 448
scalar OsgEarthNet.uav[56] utilizationCountManeuversMaintenance 79
scalar OsgEarthNet.uav[56] utilizationCountChargeState 39
scalar OsgEarthNet.uav[56] utilizationCountOverdrawnAfterMission 0
scalar OsgEarthNet.uav[56] utilizationCountIdleState 40
scalar OsgEarthNet.uav[56] utilizationFail 0
scalar OsgEarthNet.uav[56] simulationTime 259200
scalar OsgEarthNet.uav[57] utilizationSecMission 655.55330183502
scalar OsgEarthNet.uav[57] utilizationSecMaintenance 334.5505930207
scalar OsgEarthNet.uav[57] utilizationSecCharge 3650
scalar OsgEarthNet.uav[57] utilizationSecIdle 254559.89510514
scalar OsgEarthNet.uav[57] utilizationEnergyMission 3008.9524841309
scalar OsgEarthNet.uav[57] utilizationEnergyMaintenance 1551.0702629089
scalar OsgEarthNet.uav[57] utilizationEnergyCharge 4560.0263671875
scalar OsgEarthNet.uav[57] utilizationEnergyOverdrawMission 0
scalar OsgEarthNet.uav[57] utilizationEnergyOverdrawMaintenance 0
scalar OsgEarthNet.uav[57] utilizationCountMissions 1
scalar OsgEarthNet.uav[57] utilizationCountManeuversMission 10
scalar OsgEarthNet.uav[57] utilizationCountManeuversMaintenance 2
scalar OsgEarthNet.uav[57] utilizationCountChargeState 1
scalar OsgEarthNet.uav[57] utilizationCountOverdrawnAfterMission 0
scalar OsgEarthNet.uav[57] utilizationCountIdleState 2
scalar OsgEarthNet.uav[57] utilizationFail 0
scalar OsgEarthNet.uav[57] simulationTime 259200
scalar OsgEarthNet.uav[58] utilizationSecMission 750.20472747826
scalar OsgEarthNet.uav[58] utilizationSecMaintenance 300.8347882699
scalar OsgEarthNet.uav[58] utilizationSecCharge 3810
scalar OsgEarthNet.uav[58] utilizationSecIdle 254338.95948425
scalar OsgEarthNet.uav[58] utilizationEnergyMission 3462.3022003174
scalar OsgEarthNet.uav[58] utilizationEnergyMaintenance 1351.5092887878
scalar OsgEarthNet.uav[58] utilizationEnergyCharge 4813.8100585938
scalar OsgEarthNet.uav[58] utilizationEnergyOverdrawMission 0
scalar OsgEarthNet.uav[58] utilizationEnergyOverdrawMaintenance 0
scalar OsgEarthNet.uav[58] utilizationCountMissions 1
scalar OsgEarthNet.uav[58] utilizationCountManeuversMission 11
scalar OsgEarthNet.uav[58] utilizationCountManeuversMaintenance 2
scalar OsgEarthNet.uav[58] utilizationCountChargeState 1
scalar OsgEarthNet.uav[58] utilizationCountOverdrawnAfterMission 0
scalar OsgEarthNet.uav[58] utilizationCountIdleState 2
scalar OsgEarthNet.uav[58] utilizationFail 0
scalar OsgEarthNet.uav[58] simulationTime 259200
scalar OsgEarthNet.uav[59] utilizationSecMission 836.77707522227
scalar OsgEarthNet.uav[59] utilizationSecMaintenance 217.0347828456
scalar OsgEarthNet.uav[59] utilizationSecCharge 3960
scalar OsgEarthNet.uav[59] utilizationSecIdle 254186.18714193
scalar OsgEarthNet.uav[59] utilizationEnergyMission 3953.6057281494
scalar OsgEarthNet.uav[59] utilizationEnergyMaintenance 1131.1899528503
scalar OsgEarthNet.uav[59] utilizationEnergyCharge 5084.796875
scalar OsgEarthNet.uav[59] utilizationEnergyOverdrawMission 0
scalar OsgEarthNet.uav[59] utilizationEnergyOverdrawMaintenance 0
scalar OsgEarthNet.uav[59] utilizationCountMissions 1
scalar OsgEarthNet.uav[59] utilizationCountManeuversMission 13
scalar OsgEarthNet.uav[59] utilizationCountManeuversMaintenance 2
scalar OsgEarthNet.uav[59] utilizationCountChargeState 1
scalar OsgEarthNet.uav[59] utilizationCountOverdrawnAfterMission 0
scalar OsgEarthNet.uav[59] utilizationCountIdleState 2
scalar OsgEarthNet.uav[59] utilizationFail 0
scalar OsgEarthNet.uav[59] simulationTime 259200
scalar OsgEarthNet.uav[60] utilizationSecMission 760.62515258028
scalar OsgEarthNet.uav[60] utilizationSecMaintenance 281.95923480269
scalar OsgEarthNet.uav[60] utilizationSecCharge 3770
scalar OsgEarthNet.uav[60] utilizationSecIdle 254387.41461262
scalar OsgEarthNet.uav[60] utilizationEnergyMission 3427.671081543
scalar OsgEarthNet.uav[60] utilizationEnergyMaintenance 1311.2292900085
scalar OsgEarthNet.uav[60] utilizationEnergyCharge 4738.9008789062
scalar OsgEarthNet.uav[60] utilizationEnergyOverdrawMission 0
scalar OsgEarthNet.uav[60] utilizationEnergyOverdrawMaintenance 0
scalar OsgEarthNet.uav[60] utilizationCountMissions 1
scalar OsgEarthNet.uav[60] utilizationCountManeuversMission 13
scalar OsgEarthNet.uav[60] utilizationCountManeuversMaintenance 2
scalar OsgEarthNet.uav[60] utilizationCountChargeState 1
scalar OsgEarthNet.uav[60] utilizationCountOverdrawnAfterMission 0
scalar OsgEarthNet.uav[60] utilizationCountIdleState 2
scalar OsgEarthNet.uav[60] utilizationFail 0
scalar OsgEarthNet.uav[60] simulationTime 259200
scalar OsgEarthNet.uav[61] utilizationSecMission 30758.460135846
scalar OsgEarthNet.uav[61] utilizationSecMaintenance 12471.13876173
scalar OsgEarthNet.uav[61] utilizationSecCharge 156529.43711991
scalar OsgEarthNet.uav[61] utilizationSecIdle 59440.962982514
scalar OsgEarthNet.uav[61] utilizationEnergyMission 140551.21125793
scalar OsgEarthNet.uav[61] utilizationEnergyMaintenance 58526.34892273
scalar OsgEarthNet.uav[61] utilizationEnergyCharge 196143.55493164
scalar OsgEarthNet.uav[61] utilizationEnergyOverdrawMission 0
scalar OsgEarthNet.uav[61] utilizationEnergyOverdrawMaintenance 0
scalar OsgEarthNet.uav[61] utilizationCountMissions 43
scalar OsgEarthNet.uav[61] utilizationCountManeuversMission 490
scalar OsgEarthNet.uav[61] utilizationCountManeuversMaintenance 86
scalar OsgEarthNet.uav[61] utilizationCountChargeState 43
scalar OsgEarthNet.uav[61] utilizationCountOverdrawnAfterMission 0
scalar OsgEarthNet.uav[61] utilizationCountIdleState 43
scalar OsgEarthNet.uav[61] utilizationFail 0
scalar OsgEarthNet.uav[61] simulationTime 259200
scalar OsgEarthNet.uav[62] utilizationSecMission 694.00169469977
scalar OsgEarthNet.uav[62] utilizationSecMaintenance 338.49695459722
scalar OsgEarthNet.uav[62] utilizationSecCharge 3900
scalar OsgEarthNet.uav[62] utilizationSecIdle 254267.5003507
scalar OsgEarthNet.uav[62] utilizationEnergyMission 3276.291343689
scalar OsgEarthNet.uav[62] utilizationEnergyMaintenance 1665.5933952332
scalar OsgEarthNet.uav[62] utilizationEnergyCharge 4941.8872070312
scalar OsgEarthNet.uav[62] utilizationEnergyOverdrawMission 0
scalar OsgEarthNet.uav[62] utilizationEnergyOverdrawMaintenance 0
scalar OsgEarthNet.uav[62] utilizationCountMissions 1
scalar OsgEarthNet.uav[62] utilizationCountManeuversMission 13
scalar OsgEarthNet.uav[62] utilizationCountManeuversMaintenance 2
scalar OsgEarthNet.uav[62] utilizationCountChargeState 1
scalar OsgEarthNet.uav[62] utilizationCountOverdrawnAfterMission 0
scalar OsgEarthNet.uav[62] utilizationCountIdleState 2
scalar OsgEarthNet.uav[62] utilizationFail 0
scalar OsgEarthNet.uav[62] simulationTime 259200
scalar OsgEarthNet.uav[63] utilizationSecMission 30391.586683487
scalar OsgEarthNet.uav[63] utilizationSecMaintenance 13847.903297635
scalar OsgEarthNet.uav[63] utilizationSecCharge 161008.50901888
scalar OsgEarthNet.uav[63] utilizationSecIdle 53952
scalar OsgEarthNet.uav[63] utilizationEnergyMission 140889.66005805
scalar OsgEarthNet.uav[63] utilizationEnergyMaintenance 64449.424224854
scalar OsgEarthNet.uav[63] utilizationEnergyCharge 202149.48388672
scalar OsgEarthNet.uav[63] utilizationEnergyOverdrawMission 0
scalar OsgEarthNet.uav[63] utilizationEnergyOverdrawMaintenance 0
scalar OsgEarthNet.uav[63] utilizationCountMissions 44
scalar OsgEarthNet.uav[63] utilizationCountManeuversMission 493
scalar OsgEarthNet.uav[63] utilizationCountManeuversMaintenance 87
scalar OsgEarthNet.uav[63] utilizationCountChargeState 44
scalar OsgEarthNet.uav[63] utilizationCountOverdrawnAfterMission 0
scalar OsgEarthNet.uav[63] utilizationCountIdleState 44
scalar OsgEarthNet.uav[63] utilizationFail 0
scalar OsgEarthNet.uav[63] simulationTime 259200
scalar OsgEarthNet.uav[64] utilizationSecMission 26390.458867066
scalar OsgEarthNet.uav[64] utilizationSecMaintenance 14638.331785962
scalar OsgEarthNet.uav[64] utilizationSecCharge 149950
scalar OsgEarthNet.uav[64] utilizationSecIdle 68221.208346972
scalar OsgEarthNet.uav[64] utilizationEnergyMission 122174.79537364
scalar OsgEarthNet.uav[64] utilizationEnergyMaintenance 67731.882141113
scalar OsgEarthNet.uav[64] utilizationEnergyCharge 188177.69580078
scalar OsgEarthNet.uav[64] utilizationEnergyOverdrawMission 0
scalar OsgEarthNet.uav[64] utilizationEnergyOverdrawMaintenance 0
scalar OsgEarthNet.uav[64] utilizationCountMissions 40
scalar OsgEarthNet.uav[64] utilizationCountManeuversMission 431
scalar OsgEarthNet.uav[64] utilizationCountManeuversMaintenance 81
scalar OsgEarthNet.uav[64] utilizationCountChargeState 40
scalar OsgEarthNet.uav[64] utilizationCountOverdrawnAfterMission 0
scalar OsgEarthNet.uav[64] utilizationCountIdleState 41
scalar OsgEarthNet.uav[64] utilizationFail 0
scalar OsgEarthNet.uav[64] simulationTime 259200
scalar OsgEarthNet.uav[65] utilizationSecMission 2704.353202092
scalar OsgEarthNet.uav[65] utilizationSecMaintenance 1303.7195626015
scalar OsgEarthNet.uav[65] utilizationSecCharge 11758.465192531
scalar OsgEarthNet.uav[65] utilizationSecIdle 243433.46104278
[...]
scalar OsgEarthNet.uav[82] utilizationSecIdle 62472.738944127
scalar OsgEarthNet.uav[82] utilizationEnergyMission 136659.28902054
scalar OsgEarthNet.uav[82] utilizationEnergyMaintenance 61303.941719055
scalar OsgEarthNet.uav[82] utilizationEnergyCharge 193387.25402832
scalar OsgEarthNet.uav[82] utilizationEnergyOverdrawMission 0
scalar OsgEarthNet.uav[82] utilizationEnergyOverdrawMaintenance 0
scalar OsgEarthNet.uav[82] utilizationCountMissions 42
scalar OsgEarthNet.uav[82] utilizationCountManeuversMission 475
scalar OsgEarthNet.uav[82] utilizationCountManeuversMaintenance 84
scalar OsgEarthNet.uav[82] utilizationCountChargeState 42
scalar OsgEarthNet.uav[82] utilizationCountOverdrawnAfterMission 0
scalar OsgEarthNet.uav[82] utilizationCountIdleState 42
scalar OsgEarthNet.uav[82] utilizationFail 0
scalar OsgEarthNet.uav[82] simulationTime 259200
scalar OsgEarthNet.uav[83] utilizationSecMission 8937.0230357459
scalar OsgEarthNet.uav[83] utilizationSecMaintenance 5027.1873239849
scalar OsgEarthNet.uav[83] utilizationSecCharge 51870
scalar OsgEarthNet.uav[83] utilizationSecIdle 193365.78864027
scalar OsgEarthNet.uav[83] utilizationEnergyMission 41065.601509094
scalar OsgEarthNet.uav[83] utilizationEnergyMaintenance 23279.642337799
scalar OsgEarthNet.uav[83] utilizationEnergyCharge 64619.8984375
scalar OsgEarthNet.uav[83] utilizationEnergyOverdrawMission 0
scalar OsgEarthNet.uav[83] utilizationEnergyOverdrawMaintenance 0
scalar OsgEarthNet.uav[83] utilizationCountMissions 14
scalar OsgEarthNet.uav[83] utilizationCountManeuversMission 155
scalar OsgEarthNet.uav[83] utilizationCountManeuversMaintenance 28
scalar OsgEarthNet.uav[83] utilizationCountChargeState 14
scalar OsgEarthNet.uav[83] utilizationCountOverdrawnAfterMission 0
scalar OsgEarthNet.uav[83] utilizationCountIdleState 15
scalar OsgEarthNet.uav[83] utilizationFail 0
scalar OsgEarthNet.uav[83] simulationTime 259200
scalar OsgEarthNet.uav[84] utilizationSecMission 454.19906291044
scalar OsgEarthNet.uav[84] utilizationSecMaintenance 531.61543982806
scalar OsgEarthNet.uav[84] utilizationSecCharge 3800
scalar OsgEarthNet.uav[84] utilizationSecIdle 254414.18449726
scalar OsgEarthNet.uav[84] utilizationEnergyMission 2348.9583892822
scalar OsgEarthNet.uav[84] utilizationEnergyMaintenance 2414.0682601929
scalar OsgEarthNet.uav[84] utilizationEnergyCharge 4763.0268554688
scalar OsgEarthNet.uav[84] utilizationEnergyOverdrawMission 0
scalar OsgEarthNet.uav[84] utilizationEnergyOverdrawMaintenance 0
scalar OsgEarthNet.uav[84] utilizationCountMissions 1
scalar OsgEarthNet.uav[84] utilizationCountManeuversMission 8
scalar OsgEarthNet.uav[84] utilizationCountManeuversMaintenance 2
scalar OsgEarthNet.uav[84] utilizationCountChargeState 1
scalar OsgEarthNet.uav[84] utilizationCountOverdrawnAfterMission 0
scalar OsgEarthNet.uav[84] utilizationCountIdleState 2
scalar OsgEarthNet.uav[84] utilizationFail 0
scalar OsgEarthNet.uav[84] simulationTime 259200
scalar OsgEarthNet.uav[85] utilizationSecMission 27630.649534387
scalar OsgEarthNet.uav[85] utilizationSecMaintenance 14222.901893141
scalar OsgEarthNet.uav[85] utilizationSecCharge 154860
scalar OsgEarthNet.uav[85] utilizationSecIdle 62486.447572472
scalar OsgEarthNet.uav[85] utilizationEnergyMission 128275.24062347
scalar OsgEarthNet.uav[85] utilizationEnergyMaintenance 66218.662767935
scalar OsgEarthNet.uav[85] utilizationEnergyCharge 193335.82226562
scalar OsgEarthNet.uav[85] utilizationEnergyOverdrawMission 0
scalar OsgEarthNet.uav[85] utilizationEnergyOverdrawMaintenance 0
scalar OsgEarthNet.uav[85] utilizationCountMissions 42
scalar OsgEarthNet.uav[85] utilizationCountManeuversMission 455
scalar OsgEarthNet.uav[85] utilizationCountManeuversMaintenance 85
scalar OsgEarthNet.uav[85] utilizationCountChargeState 42
scalar OsgEarthNet.uav[85] utilizationCountOverdrawnAfterMission 0
scalar OsgEarthNet.uav[85] utilizationCountIdleState 43
scalar OsgEarthNet.uav[85] utilizationFail 0
scalar OsgEarthNet.uav[85] simulationTime 259200
scalar OsgEarthNet.uav[86] utilizationSecMission 22771.015323583
scalar OsgEarthNet.uav[86] utilizationSecMaintenance 11319.318729592
scalar OsgEarthNet.uav[86] utilizationSecCharge 126680
scalar OsgEarthNet.uav[86] utilizationSecIdle 98429.664946825
scalar OsgEarthNet.uav[86] utilizationEnergyMission 105903.59796906
scalar OsgEarthNet.uav[86] utilizationEnergyMaintenance 53214.903923035
scalar OsgEarthNet.uav[86] utilizationEnergyCharge 158843.85253906
scalar OsgEarthNet.uav[86] utilizationEnergyOverdrawMission 0
scalar OsgEarthNet.uav[86] utilizationEnergyOverdrawMaintenance 0
scalar OsgEarthNet.uav[86] utilizationCountMissions 34
scalar OsgEarthNet.uav[86] utilizationCountManeuversMission 372
scalar OsgEarthNet.uav[86] utilizationCountManeuversMaintenance 68
scalar OsgEarthNet.uav[86] utilizationCountChargeState 34
scalar OsgEarthNet.uav[86] utilizationCountOverdrawnAfterMission 0
scalar OsgEarthNet.uav[86] utilizationCountIdleState 35
scalar OsgEarthNet.uav[86] utilizationFail 0
scalar OsgEarthNet.uav[86] simulationTime 259200
scalar OsgEarthNet.uav[87] utilizationSecMission 25675.317125442
scalar OsgEarthNet.uav[87] utilizationSecMaintenance 14197.924128888
scalar OsgEarthNet.uav[87] utilizationSecCharge 148780
scalar OsgEarthNet.uav[87] utilizationSecIdle 70546.75774567
scalar OsgEarthNet.uav[87] utilizationEnergyMission 118909.02253723
scalar OsgEarthNet.uav[87] utilizationEnergyMaintenance 67074.003154755
scalar OsgEarthNet.uav[87] utilizationEnergyCharge 186460.60742188
scalar OsgEarthNet.uav[87] utilizationEnergyOverdrawMission 0
scalar OsgEarthNet.uav[87] utilizationEnergyOverdrawMaintenance 0
scalar OsgEarthNet.uav[87] utilizationCountMissions 40
scalar OsgEarthNet.uav[87] utilizationCountManeuversMission 414
scalar OsgEarthNet.uav[87] utilizationCountManeuversMaintenance 80
scalar OsgEarthNet.uav[87] utilizationCountChargeState 40
scalar OsgEarthNet.uav[87] utilizationCountOverdrawnAfterMission 0
scalar OsgEarthNet.uav[87] utilizationCountIdleState 41
scalar OsgEarthNet.uav[87] utilizationFail 0
scalar OsgEarthNet.uav[87] simulationTime 259200
scalar OsgEarthNet.uav[88] utilizationSecMission 25491.932902571
scalar OsgEarthNet.uav[88] utilizationSecMaintenance 10311.069528732
scalar OsgEarthNet.uav[88] utilizationSecCharge 131120
scalar OsgEarthNet.uav[88] utilizationSecIdle 92276.996568697
scalar OsgEarthNet.uav[88] utilizationEnergyMission 116231.32675171
scalar OsgEarthNet.uav[88] utilizationEnergyMaintenance 48195.875427246
scalar OsgEarthNet.uav[88] utilizationEnergyCharge 164632.02929688
scalar OsgEarthNet.uav[88] utilizationEnergyOverdrawMission 0
scalar OsgEarthNet.uav[88] utilizationEnergyOverdrawMaintenance 0
scalar OsgEarthNet.uav[88] utilizationCountMissions 35
scalar OsgEarthNet.uav[88] utilizationCountManeuversMission 417
scalar OsgEarthNet.uav[88] utilizationCountManeuversMaintenance 70
scalar OsgEarthNet.uav[88] utilizationCountChargeState 35
scalar OsgEarthNet.uav[88] utilizationCountOverdrawnAfterMission 0
scalar OsgEarthNet.uav[88] utilizationCountIdleState 36
scalar OsgEarthNet.uav[88] utilizationFail 0
scalar OsgEarthNet.uav[88] simulationTime 259200
scalar OsgEarthNet.uav[89] utilizationSecMission 687.96628759863
scalar OsgEarthNet.uav[89] utilizationSecMaintenance 395.09592957968
scalar OsgEarthNet.uav[89] utilizationSecCharge 3920
scalar OsgEarthNet.uav[89] utilizationSecIdle 254196.93678282
scalar OsgEarthNet.uav[89] utilizationEnergyMission 3100.769241333
scalar OsgEarthNet.uav[89] utilizationEnergyMaintenance 1865.2057113647
scalar OsgEarthNet.uav[89] utilizationEnergyCharge 4991.8798828125
scalar OsgEarthNet.uav[89] utilizationEnergyOverdrawMission 0
scalar OsgEarthNet.uav[89] utilizationEnergyOverdrawMaintenance 0
scalar OsgEarthNet.uav[89] utilizationCountMissions 1
scalar OsgEarthNet.uav[89] utilizationCountManeuversMission 11
scalar OsgEarthNet.uav[89] utilizationCountManeuversMaintenance 2
scalar OsgEarthNet.uav[89] utilizationCountChargeState 1
scalar OsgEarthNet.uav[89] utilizationCountOverdrawnAfterMission 0
scalar OsgEarthNet.uav[89] utilizationCountIdleState 2
scalar OsgEarthNet.uav[89] utilizationFail 0
scalar OsgEarthNet.uav[89] simulationTime 259200
scalar OsgEarthNet.uav[90] utilizationSecMission 702.6942798579
scalar OsgEarthNet.uav[90] utilizationSecMaintenance 282.29565405678
scalar OsgEarthNet.uav[90] utilizationSecCharge 3830
scalar OsgEarthNet.uav[90] utilizationSecIdle 254385.00906609
scalar OsgEarthNet.uav[90] utilizationEnergyMission 3395.8043060303
scalar OsgEarthNet.uav[90] utilizationEnergyMaintenance 1435.7036247253
scalar OsgEarthNet.uav[90] utilizationEnergyCharge 4831.5034179688
scalar OsgEarthNet.uav[90] utilizationEnergyOverdrawMission 0
scalar OsgEarthNet.uav[90] utilizationEnergyOverdrawMaintenance 0
scalar OsgEarthNet.uav[90] utilizationCountMissions 1
scalar OsgEarthNet.uav[90] utilizationCountManeuversMission 10
scalar OsgEarthNet.uav[90] utilizationCountManeuversMaintenance 2
scalar OsgEarthNet.uav[90] utilizationCountChargeState 1
scalar OsgEarthNet.uav[90] utilizationCountOverdrawnAfterMission 0
scalar OsgEarthNet.uav[90] utilizationCountIdleState 2
scalar OsgEarthNet.uav[90] utilizationFail 0
scalar OsgEarthNet.uav[90] simulationTime 259200
scalar OsgEarthNet.uav[91] utilizationSecMission 10131.464411288
scalar OsgEarthNet.uav[91] utilizationSecMaintenance 6830.6255857736
scalar OsgEarthNet.uav[91] utilizationSecCharge 63230
scalar OsgEarthNet.uav[91] utilizationSecIdle 179007.90900294
scalar OsgEarthNet.uav[91] utilizationEnergyMission 47541.991615295
scalar OsgEarthNet.uav[91] utilizationEnergyMaintenance 31611.642856598
scalar OsgEarthNet.uav[91] utilizationEnergyCharge 79230.614257812
scalar OsgEarthNet.uav[91] utilizationEnergyOverdrawMission 0
scalar OsgEarthNet.uav[91] utilizationEnergyOverdrawMaintenance 0
scalar OsgEarthNet.uav[91] utilizationCountMissions 17
scalar OsgEarthNet.uav[91] utilizationCountManeuversMission 169
scalar OsgEarthNet.uav[91] utilizationCountManeuversMaintenance 34
scalar OsgEarthNet.uav[91] utilizationCountChargeState 17
scalar OsgEarthNet.uav[91] utilizationCountOverdrawnAfterMission 0
scalar OsgEarthNet.uav[91] utilizationCountIdleState 18
scalar OsgEarthNet.uav[91] utilizationFail 0
scalar OsgEarthNet.uav[91] simulationTime 259200
scalar OsgEarthNet.uav[92] utilizationSecMission 621.17604176187
scalar OsgEarthNet.uav[92] utilizationSecMaintenance 313.76167006775
scalar OsgEarthNet.uav[92] utilizationSecCharge 3670
scalar OsgEarthNet.uav[92] utilizationSecIdle 254595.06128817
scalar OsgEarthNet.uav[92] utilizationEnergyMission 3128.5957946777
scalar OsgEarthNet.uav[92] utilizationEnergyMaintenance 1408.5940666199
scalar OsgEarthNet.uav[92] utilizationEnergyCharge 4537.1909179688
scalar OsgEarthNet.uav[92] utilizationEnergyOverdrawMission 0
scalar OsgEarthNet.uav[92] utilizationEnergyOverdrawMaintenance 0
scalar OsgEarthNet.uav[92] utilizationCountMissions 1
scalar OsgEarthNet.uav[92] utilizationCountManeuversMission 12
scalar OsgEarthNet.uav[92] utilizationCountManeuversMaintenance 2
scalar OsgEarthNet.uav[92] utilizationCountChargeState 1
scalar OsgEarthNet.uav[92] utilizationCountOverdrawnAfterMission 0
scalar OsgEarthNet.uav[92] utilizationCountIdleState 2
scalar OsgEarthNet.uav[92] utilizationFail 0
scalar OsgEarthNet.uav[92] simulationTime 259200
scalar OsgEarthNet.uav[93] utilizationSecMission 313.66140879233
scalar OsgEarthNet.uav[93] utilizationSecMaintenance 546.3657190468
scalar OsgEarthNet.uav[93] utilizationSecCharge 3370
scalar OsgEarthNet.uav[93] utilizationSecIdle 254969.97187216
scalar OsgEarthNet.uav[93] utilizationEnergyMission 1481.5293731689
scalar OsgEarthNet.uav[93] utilizationEnergyMaintenance 2597.9637680054
scalar OsgEarthNet.uav[93] utilizationEnergyCharge 4079.4914550781
scalar OsgEarthNet.uav[93] utilizationEnergyOverdrawMission 0
scalar OsgEarthNet.uav[93] utilizationEnergyOverdrawMaintenance 0
scalar OsgEarthNet.uav[93] utilizationCountMissions 1
scalar OsgEarthNet.uav[93] utilizationCountManeuversMission 5
scalar OsgEarthNet.uav[93] utilizationCountManeuversMaintenance 2
scalar OsgEarthNet.uav[93] utilizationCountChargeState 1
scalar OsgEarthNet.uav[93] utilizationCountOverdrawnAfterMission 0
scalar OsgEarthNet.uav[93] utilizationCountIdleState 2
scalar OsgEarthNet.uav[93] utilizationFail 0
scalar OsgEarthNet.uav[93] simulationTime 259200
scalar OsgEarthNet.uav[94] utilizationSecMission 24404.680403179
scalar OsgEarthNet.uav[94] utilizationSecMaintenance 11639.873918553
scalar OsgEarthNet.uav[94] utilizationSecCharge 131256.05790434
scalar OsgEarthNet.uav[94] utilizationSecIdle 91899.386773925
scalar OsgEarthNet.uav[94] utilizationEnergyMission 112664.14026642
scalar OsgEarthNet.uav[94] utilizationEnergyMaintenance 54428.939987183
scalar OsgEarthNet.uav[94] utilizationEnergyCharge 165063.66455078
scalar OsgEarthNet.uav[94] utilizationEnergyOverdrawMission 0
scalar OsgEarthNet.uav[94] utilizationEnergyOverdrawMaintenance 0
scalar OsgEarthNet.uav[94] utilizationCountMissions 36
scalar OsgEarthNet.uav[94] utilizationCountManeuversMission 407
scalar OsgEarthNet.uav[94] utilizationCountManeuversMaintenance 72
scalar OsgEarthNet.uav[94] utilizationCountChargeState 36
scalar OsgEarthNet.uav[94] utilizationCountOverdrawnAfterMission 0
scalar OsgEarthNet.uav[94] utilizationCountIdleState 36
scalar OsgEarthNet.uav[94] utilizationFail 0
scalar OsgEarthNet.uav[94] simulationTime 259200
scalar OsgEarthNet.uav[95] utilizationSecMission 2306.2016019009
scalar OsgEarthNet.uav[95] utilizationSecMaintenance 1733.3851974295
scalar OsgEarthNet.uav[95] utilizationSecCharge 14940
scalar OsgEarthNet.uav[95] utilizationSecIdle 240220.41220067
scalar OsgEarthNet.uav[95] utilizationEnergyMission 10934.692352295
scalar OsgEarthNet.uav[95] utilizationEnergyMaintenance 7846.0552215576
scalar OsgEarthNet.uav[95] utilizationEnergyCharge 18780.748046875
scalar OsgEarthNet.uav[95] utilizationEnergyOverdrawMission 0
scalar OsgEarthNet.uav[95] utilizationEnergyOverdrawMaintenance 0
scalar OsgEarthNet.uav[95] utilizationCountMissions 4
scalar OsgEarthNet.uav[95] utilizationCountManeuversMission 39
scalar OsgEarthNet.uav[95] utilizationCountManeuversMaintenance 8
scalar OsgEarthNet.uav[95] utilizationCountChargeState 4
scalar OsgEarthNet.uav[95] utilizationCountOverdrawnAfterMission 0
scalar OsgEarthNet.uav[95] utilizationCountIdleState 5
scalar OsgEarthNet.uav[95] utilizationFail 0
scalar OsgEarthNet.uav[95] simulationTime 259200
scalar OsgEarthNet.uav[96] utilizationSecMission 2542.9438085464
scalar OsgEarthNet.uav[96] utilizationSecMaintenance 2504.9078494708
scalar OsgEarthNet.uav[96] utilizationSecCharge 18790
scalar OsgEarthNet.uav[96] utilizationSecIdle 235362.14734198
scalar OsgEarthNet.uav[96] utilizationEnergyMission 11929.53401947
scalar OsgEarthNet.uav[96] utilizationEnergyMaintenance 11930.409858704
scalar OsgEarthNet.uav[96] utilizationEnergyCharge 23687.814453125
scalar OsgEarthNet.uav[96] utilizationEnergyOverdrawMission 0
scalar OsgEarthNet.uav[96] utilizationEnergyOverdrawMaintenance 0
scalar OsgEarthNet.uav[96] utilizationCountMissions 5
scalar OsgEarthNet.uav[96] utilizationCountManeuversMission 43
scalar OsgEarthNet.uav[96] utilizationCountManeuversMaintenance 10
scalar OsgEarthNet.uav[96] utilizationCountChargeState 5
scalar OsgEarthNet.uav[96] utilizationCountOverdrawnAfterMission 0
scalar OsgEarthNet.uav[96] utilizationCountIdleState 6
scalar OsgEarthNet.uav[96] utilizationFail 0
scalar OsgEarthNet.uav[96] simulationTime 259200
scalar OsgEarthNet.uav[97] utilizationSecMission 30537.449406505
scalar OsgEarthNet.uav[97] utilizationSecMaintenance 13640.291396039
scalar OsgEarthNet.uav[97] utilizationSecCharge 161290
scalar OsgEarthNet.uav[97] utilizationSecIdle 53732.258197456
scalar OsgEarthNet.uav[97] utilizationEnergyMission 140568.37448844
scalar OsgEarthNet.uav[97] utilizationEnergyMaintenance 65170.24647522
scalar OsgEarthNet.uav[97] utilizationEnergyCharge 202754.10009766
scalar OsgEarthNet.uav[97] utilizationEnergyOverdrawMission 0
scalar OsgEarthNet.uav[97] utilizationEnergyOverdrawMaintenance 0
scalar OsgEarthNet.uav[97] utilizationCountMissions 43
scalar OsgEarthNet.uav[97] utilizationCountManeuversMission 489
scalar OsgEarthNet.uav[97] utilizationCountManeuversMaintenance 87
scalar OsgEarthNet.uav[97] utilizationCountChargeState 43
scalar OsgEarthNet.uav[97] utilizationCountOverdrawnAfterMission 0
scalar OsgEarthNet.uav[97] utilizationCountIdleState 44
scalar OsgEarthNet.uav[97] utilizationFail 0
scalar OsgEarthNet.uav[97] simulationTime 259200
scalar OsgEarthNet.uav[98] utilizationSecMission 29656.796323675
scalar OsgEarthNet.uav[98] utilizationSecMaintenance 13883.694735903
scalar OsgEarthNet.uav[98] utilizationSecCharge 158348.0549817
scalar OsgEarthNet.uav[98] utilizationSecIdle 57311.452958717
scalar OsgEarthNet.uav[98] utilizationEnergyMission 137720.51229858
scalar OsgEarthNet.uav[98] utilizationEnergyMaintenance 65056.678359985
scalar OsgEarthNet.uav[98] utilizationEnergyCharge 199229.2154541
scalar OsgEarthNet.uav[98] utilizationEnergyOverdrawMission 0
scalar OsgEarthNet.uav[98] utilizationEnergyOverdrawMaintenance 0
scalar OsgEarthNet.uav[98] utilizationCountMissions 43
scalar OsgEarthNet.uav[98] utilizationCountManeuversMission 481
scalar OsgEarthNet.uav[98] utilizationCountManeuversMaintenance 86
scalar OsgEarthNet.uav[98] utilizationCountChargeState 43
scalar OsgEarthNet.uav[98] utilizationCountOverdrawnAfterMission 0
scalar OsgEarthNet.uav[98] utilizationCountIdleState 43
scalar OsgEarthNet.uav[98] utilizationFail 0
scalar OsgEarthNet.uav[98] simulationTime 259200
scalar OsgEarthNet.uav[99] utilizationSecMission 9615.835896233
scalar OsgEarthNet.uav[99] utilizationSecMaintenance 5386.0592266909
scalar OsgEarthNet.uav[99] utilizationSecCharge 55810
scalar OsgEarthNet.uav[99] utilizationSecIdle 188388.10387708
scalar OsgEarthNet.uav[99] utilizationEnergyMission 44710.875022888
scalar OsgEarthNet.uav[99] utilizationEnergyMaintenance 25528.530578613
scalar OsgEarthNet.uav[99] utilizationEnergyCharge 70033.367675781
scalar OsgEarthNet.uav[99] utilizationEnergyOverdrawMission 0
scalar OsgEarthNet.uav[99] utilizationEnergyOverdrawMaintenance 0
scalar OsgEarthNet.uav[99] utilizationCountMissions 15
scalar OsgEarthNet.uav[99] utilizationCountManeuversMission 155
scalar OsgEarthNet.uav[99] utilizationCountManeuversMaintenance 30
scalar OsgEarthNet.uav[99] utilizationCountChargeState 15
scalar OsgEarthNet.uav[99] utilizationCountOverdrawnAfterMission 0
scalar OsgEarthNet.uav[99] utilizationCountIdleState 16
scalar OsgEarthNet.uav[99] utilizationFail 0
scalar OsgEarthNet.uav[99] simulationTime 259200
scalar OsgEarthNet.cs[0] usedPower 482596.10780735
scalar OsgEarthNet.cs[0] chargedPower 482596.10780735
scalar OsgEarthNet.cs[0] chargedMobileNodes 101
scalar OsgEarthNet.cs[0] reservations 106
scalar OsgEarthNet.cs[1] usedPower 1079898.1642805
scalar OsgEarthNet.cs[1] chargedPower 1079898.1642805
scalar OsgEarthNet.cs[1] chargedMobileNodes 227
scalar OsgEarthNet.cs[1] reservations 232
scalar OsgEarthNet.cs[2] usedPower 2778004.3289229
scalar OsgEarthNet.cs[2] chargedPower 2778004.3289229
scalar OsgEarthNet.cs[2] chargedMobileNodes 587
scalar OsgEarthNet.cs[2] reservations 594
scalar OsgEarthNet.cs[3] usedPower 679892.85800963
scalar OsgEarthNet.cs[3] chargedPower 679892.85800963
scalar OsgEarthNet.cs[3] chargedMobileNodes 145
scalar OsgEarthNet.cs[3] reservations 147
scalar OsgEarthNet.cs[4] usedPower 768955.05563777
scalar OsgEarthNet.cs[4] chargedPower 768955.05563777
scalar OsgEarthNet.cs[4] chargedMobileNodes 165
scalar OsgEarthNet.cs[4] reservations 166
scalar OsgEarthNet.cs[5] usedPower 513620.23830275
scalar OsgEarthNet.cs[5] chargedPower 513620.23830275
scalar OsgEarthNet.cs[5] chargedMobileNodes 107
scalar OsgEarthNet.cs[5] reservations 109
scalar OsgEarthNet.cs[6] usedPower 2511036.3020016
scalar OsgEarthNet.cs[6] chargedPower 2511036.3020016
scalar OsgEarthNet.cs[6] chargedMobileNodes 537
scalar OsgEarthNet.cs[6] reservations 542

