version 2
run Szenario_Hotel_Gabelbach-24-20180710-14:28:44-29668
attr configname Szenario_Hotel_Gabelbach
attr datetime 20180710-14:28:44
attr experiment Szenario_Hotel_Gabelbach
attr inifile omnetpp.ini
attr iterationvars "$replM=0, $replSearchM=1"
attr iterationvarsf replM=0,replSearchM=1-
attr measurement "$replM=0, $replSearchM=1"
attr network OsgEarthNet
attr processid 29668
attr repetition 8
attr replication #8
attr resultdir results
attr runnumber 24
attr seedset 24
itervar replM 0
itervar replSearchM 1
param *.osgEarthScene.scene "\"Szenario_Hotel_Gabelbach.earth\""
param *.playgroundLatitude 50.6830269
param *.playgroundLongitude 10.8538055
param *.playgroundWidth 3500m
param *.playgroundHeight 3500m
param *.numUAVs 100
param *.cs[0].posX 3537m
param *.cs[0].posY 965m
param *.cs[0].posZ 538m
param *.cs[1].posX 312m
param *.cs[1].posY 1262m
param *.cs[1].posZ 539m
param *.cs[2].posX 2185m
param *.cs[2].posY 3026m
param *.cs[2].posZ 777m
param *.cs[3].posX 10m
param *.cs[3].posY 2200m
param *.cs[3].posZ 560m
param *.cs[4].posX 750m
param *.cs[4].posY 200m
param *.cs[4].posZ 540m
param *.cs[5].posX 2450m
param *.cs[5].posY 180m
param *.cs[5].posZ 524m
param *.cs[6].posX 3140m
param *.cs[6].posY 1790m
param *.cs[6].posZ 606m
param *.numCSs 7
param *.uav[*].replacementMethod 0
param *.missionControl.replacementSearchMethod 1
param *.*.timeStep 10s
param *.uav[*].commandPreviewCommandCount 20
param *.missionControl.missionFiles "\"missions\\\\Szenario_WB_Hotel_Gabelbach_Mission_Hotel.waypoints,missions\\\\Szenario_WB_Hotel_Gabelbach_Mission_Kickelhahn.waypoints,missions\\\\Szenario_WB_Hotel_Gabelbach_Mission_Ilmenau_Sportplatz.waypoints,missions\\\\Szenario_WB_Hotel_Gabelbach_Mission_Manebach_Mitte.waypoints,missions\\\\Szenario_WB_Hotel_Gabelbach_Mission_Manebach_Sued.waypoints\""
param *.missionControl.missionFiles "\"missions\\\\Szenario_WB_Hotel_Gabelbach_Mission_Hotel.waypoints,missions\\\\Szenario_WB_Hotel_Gabelbach_Mission_Kickelhahn.waypoints,missions\\\\Szenario_WB_Hotel_Gabelbach_Mission_Ilmenau_Sportplatz.waypoints,missions\\\\Szenario_WB_Hotel_Gabelbach_Mission_Manebach_Mitte.waypoints,missions\\\\Szenario_WB_Hotel_Gabelbach_Mission_Manebach_Sued.waypoints,missions\\\\Szenario_WB_Hotel_Gabelbach_Hover_HoheSchlaufe.waypoints,missions\\\\Szenario_WB_Hotel_Gabelbach_Hover_Kickelhahn.waypoints,missions\\\\Szenario_WB_Hotel_Gabelbach_Hover_Gabelbachskopf.waypoints,missions\\\\Szenario_WB_Hotel_Gabelbach_Hover_Dachskopf.waypoints\""
param *.uav[0].startX 3537m
param *.uav[0].startY 965m
param *.uav[0].startZ 539m
param *.uav[1].startX 312m
param *.uav[1].startY 1262m
param *.uav[1].startZ 540m
param *.uav[2].startX 2185m
param *.uav[2].startY 3026m
param *.uav[2].startZ 778m
param *.uav[3].startX 3537m
param *.uav[3].startY 965m
param *.uav[3].startZ 539m
param *.uav[4].startX 312m
param *.uav[4].startY 1262m
param *.uav[4].startZ 540m
param *.uav[5].startX 2185m
param *.uav[5].startY 3026m
param *.uav[5].startZ 778m
param *.uav[6].startX 3537m
param *.uav[6].startY 965m
param *.uav[6].startZ 539m
param *.uav[7].startX 312m
param *.uav[7].startY 1262m
param *.uav[7].startZ 540m
param *.uav[8].startX 2185m
param *.uav[8].startY 3026m
param *.uav[8].startZ 778m
param *.uav[9].startX 3537m
param *.uav[9].startY 965m
param *.uav[9].startZ 539m
param *.uav[10].startX 3537m
param *.uav[10].startY 965m
param *.uav[10].startZ 539m
param *.uav[11].startX 312m
param *.uav[11].startY 1262m
param *.uav[11].startZ 540m
param *.uav[12].startX 2185m
param *.uav[12].startY 3026m
param *.uav[12].startZ 778m
param *.uav[13].startX 3537m
param *.uav[13].startY 965m
param *.uav[13].startZ 539m
param *.uav[14].startX 312m
param *.uav[14].startY 1262m
param *.uav[14].startZ 540m
param *.uav[15].startX 2185m
param *.uav[15].startY 3026m
param *.uav[15].startZ 778m
param *.uav[16].startX 3537m
param *.uav[16].startY 965m
param *.uav[16].startZ 539m
param *.uav[17].startX 312m
param *.uav[17].startY 1262m
param *.uav[17].startZ 540m
param *.uav[18].startX 2185m
param *.uav[18].startY 3026m
param *.uav[18].startZ 778m
param *.uav[19].startX 3537m
param *.uav[19].startY 965m
param *.uav[19].startZ 539m
param *.uav[20].startX 3537m
param *.uav[20].startY 965m
param *.uav[20].startZ 539m
param *.uav[21].startX 312m
param *.uav[21].startY 1262m
param *.uav[21].startZ 540m
param *.uav[22].startX 2185m
param *.uav[22].startY 3026m
param *.uav[22].startZ 778m
param *.uav[23].startX 3537m
param *.uav[23].startY 965m
param *.uav[23].startZ 539m
param *.uav[24].startX 312m
param *.uav[24].startY 1262m
param *.uav[24].startZ 540m
param *.uav[25].startX 2185m
param *.uav[25].startY 3026m
param *.uav[25].startZ 778m
param *.uav[26].startX 3537m
param *.uav[26].startY 965m
param *.uav[26].startZ 539m
param *.uav[27].startX 312m
param *.uav[27].startY 1262m
param *.uav[27].startZ 540m
param *.uav[28].startX 2185m
param *.uav[28].startY 3026m
param *.uav[28].startZ 778m
param *.uav[29].startX 3537m
param *.uav[29].startY 965m
param *.uav[29].startZ 539m
param *.uav[30].startX 3537m
param *.uav[30].startY 965m
param *.uav[30].startZ 539m
param *.uav[31].startX 312m
param *.uav[31].startY 1262m
param *.uav[31].startZ 540m
param *.uav[32].startX 2185m
param *.uav[32].startY 3026m
param *.uav[32].startZ 778m
param *.uav[33].startX 3537m
param *.uav[33].startY 965m
param *.uav[33].startZ 539m
param *.uav[34].startX 312m
param *.uav[34].startY 1262m
param *.uav[34].startZ 540m
param *.uav[35].startX 2185m
param *.uav[35].startY 3026m
param *.uav[35].startZ 778m
param *.uav[36].startX 3537m
param *.uav[36].startY 965m
param *.uav[36].startZ 539m
param *.uav[37].startX 312m
param *.uav[37].startY 1262m
param *.uav[37].startZ 540m
param *.uav[38].startX 2185m
param *.uav[38].startY 3026m
param *.uav[38].startZ 778m
param *.uav[39].startX 3537m
param *.uav[39].startY 965m
param *.uav[39].startZ 539m
param *.uav[40].startX 3537m
param *.uav[40].startY 965m
param *.uav[40].startZ 539m
param *.uav[41].startX 312m
param *.uav[41].startY 1262m
param *.uav[41].startZ 540m
param *.uav[42].startX 2185m
param *.uav[42].startY 3026m
param *.uav[42].startZ 778m
param *.uav[43].startX 3537m
param *.uav[43].startY 965m
param *.uav[43].startZ 539m
param *.uav[44].startX 312m
param *.uav[44].startY 1262m
param *.uav[44].startZ 540m
param *.uav[45].startX 2185m
param *.uav[45].startY 3026m
param *.uav[45].startZ 778m
param *.uav[46].startX 3537m
param *.uav[46].startY 965m
param *.uav[46].startZ 539m
param *.uav[47].startX 312m
param *.uav[47].startY 1262m
param *.uav[47].startZ 540m
param *.uav[48].startX 2185m
param *.uav[48].startY 3026m
param *.uav[48].startZ 778m
param *.uav[49].startX 3537m
param *.uav[49].startY 965m
param *.uav[49].startZ 539m
param *.uav[50].startX 3537m
param *.uav[50].startY 965m
param *.uav[50].startZ 539m
param *.uav[51].startX 312m
param *.uav[51].startY 1262m
param *.uav[51].startZ 540m
param *.uav[52].startX 2185m
param *.uav[52].startY 3026m
param *.uav[52].startZ 778m
param *.uav[53].startX 3537m
param *.uav[53].startY 965m
param *.uav[53].startZ 539m
param *.uav[54].startX 312m
param *.uav[54].startY 1262m
param *.uav[54].startZ 540m
param *.uav[55].startX 2185m
param *.uav[55].startY 3026m
param *.uav[55].startZ 778m
param *.uav[56].startX 3537m
param *.uav[56].startY 965m
param *.uav[56].startZ 539m
param *.uav[57].startX 312m
param *.uav[57].startY 1262m
param *.uav[57].startZ 540m
param *.uav[58].startX 2185m
param *.uav[58].startY 3026m
param *.uav[58].startZ 778m
param *.uav[59].startX 3537m
param *.uav[59].startY 965m
param *.uav[59].startZ 539m
param *.uav[60].startX 3537m
param *.uav[60].startY 965m
param *.uav[60].startZ 539m
param *.uav[61].startX 312m
param *.uav[61].startY 1262m
param *.uav[61].startZ 540m
param *.uav[62].startX 2185m
param *.uav[62].startY 3026m
param *.uav[62].startZ 778m
param *.uav[63].startX 3537m
param *.uav[63].startY 965m
param *.uav[63].startZ 539m
param *.uav[64].startX 312m
param *.uav[64].startY 1262m
param *.uav[64].startZ 540m
param *.uav[65].startX 2185m
param *.uav[65].startY 3026m
param *.uav[65].startZ 778m
param *.uav[66].startX 3537m
param *.uav[66].startY 965m
param *.uav[66].startZ 539m
param *.uav[67].startX 312m
param *.uav[67].startY 1262m
param *.uav[67].startZ 540m
param *.uav[68].startX 2185m
param *.uav[68].startY 3026m
param *.uav[68].startZ 778m
param *.uav[69].startX 3537m
param *.uav[69].startY 965m
param *.uav[69].startZ 539m
param *.uav[70].startX 3537m
param *.uav[70].startY 965m
param *.uav[70].startZ 539m
param *.uav[71].startX 312m
param *.uav[71].startY 1262m
param *.uav[71].startZ 540m
param *.uav[72].startX 2185m
param *.uav[72].startY 3026m
param *.uav[72].startZ 778m
param *.uav[73].startX 3537m
param *.uav[73].startY 965m
param *.uav[73].startZ 539m
param *.uav[74].startX 312m
param *.uav[74].startY 1262m
param *.uav[74].startZ 540m
param *.uav[75].startX 2185m
param *.uav[75].startY 3026m
param *.uav[75].startZ 778m
param *.uav[76].startX 3537m
param *.uav[76].startY 965m
param *.uav[76].startZ 539m
param *.uav[77].startX 312m
param *.uav[77].startY 1262m
param *.uav[77].startZ 540m
param *.uav[78].startX 2185m
param *.uav[78].startY 3026m
param *.uav[78].startZ 778m
param *.uav[79].startX 3537m
param *.uav[79].startY 965m
param *.uav[79].startZ 539m
param *.uav[80].startX 3537m
param *.uav[80].startY 965m
param *.uav[80].startZ 539m
param *.uav[81].startX 312m
param *.uav[81].startY 1262m
param *.uav[81].startZ 540m
param *.uav[82].startX 2185m
param *.uav[82].startY 3026m
param *.uav[82].startZ 778m
param *.uav[83].startX 3537m
param *.uav[83].startY 965m
param *.uav[83].startZ 539m
param *.uav[84].startX 312m
param *.uav[84].startY 1262m
param *.uav[84].startZ 540m
param *.uav[85].startX 2185m
param *.uav[85].startY 3026m
param *.uav[85].startZ 778m
param *.uav[86].startX 3537m
param *.uav[86].startY 965m
param *.uav[86].startZ 539m
param *.uav[87].startX 312m
param *.uav[87].startY 1262m
param *.uav[87].startZ 540m
param *.uav[88].startX 2185m
param *.uav[88].startY 3026m
param *.uav[88].startZ 778m
param *.uav[89].startX 3537m
param *.uav[89].startY 965m
param *.uav[89].startZ 539m
param *.uav[90].startX 3537m
param *.uav[90].startY 965m
param *.uav[90].startZ 539m
param *.uav[91].startX 312m
param *.uav[91].startY 1262m
param *.uav[91].startZ 540m
param *.uav[92].startX 2185m
param *.uav[92].startY 3026m
param *.uav[92].startZ 778m
param *.uav[93].startX 3537m
param *.uav[93].startY 965m
param *.uav[93].startZ 539m
param *.uav[94].startX 312m
param *.uav[94].startY 1262m
param *.uav[94].startZ 540m
param *.uav[95].startX 2185m
param *.uav[95].startY 3026m
param *.uav[95].startZ 778m
param *.uav[96].startX 3537m
param *.uav[96].startY 965m
param *.uav[96].startZ 539m
param *.uav[97].startX 312m
param *.uav[97].startY 1262m
param *.uav[97].startZ 540m
param *.uav[98].startX 2185m
param *.uav[98].startY 3026m
param *.uav[98].startZ 778m
param *.uav[99].startX 3537m
param *.uav[99].startY 965m
param *.uav[99].startZ 539m
param *.osgEarthScene.scene "\"boston.earth\""
param *.playgroundLatitude 42.3558
param *.playgroundLongitude -71.0677
param *.playgroundWidth 400m
param *.playgroundHeight 200m
param *.channelController.connectionColor "\"#0000FF40\""
param *.channelController.showConnections false
param *.uav[*].modelURL "\"quadrocopter.small.obj.15.scale.0,0,90.rot\""
param *.uav[*].labelColor "\"#FF7C00CC\""
param *.uav[*].label2Color "\"#FF7C00EE\""
param *.uav[*].batteryCapacity 5200mAh
param *.uav[*].batteryRemaining uav[index].batteryCapacity
param *.uav[*].predictionQuantile 0.95
param *.uav[*].replacementMethod 2
param *.uav[*].weightedSumWeight 0.5
param *.cs[*].modelURL "\"chargingstation_v1.osgt.2.scale.0,0,0.rot.0,0,-15e-1.trans\""
param *.cs[*].spotsWaiting 999
param *.cs[*].spotsCharging 999
param *.cs[*].chargeEffectivenessPercentage 100
param *.cs[*].nonLinearPhaseStartPercentage 85
param *.cs[*].chargeCurrent 6.0A
param *.cs[*].prioritizeFastCharge true
param *.missionControl.replacementSearchMethod 0
param *.*.timeStep 9s

scalar OsgEarthNet.uav[0] utilizationSecMission 11182.698709054
scalar OsgEarthNet.uav[0] utilizationSecMaintenance 3527.3201991401
scalar OsgEarthNet.uav[0] utilizationSecCharge 51670
scalar OsgEarthNet.uav[0] utilizationSecIdle 192819.98009181
scalar OsgEarthNet.uav[0] utilizationEnergyMission 52130.206098246
scalar OsgEarthNet.uav[0] utilizationEnergyMaintenance 17031.880012512
scalar OsgEarthNet.uav[0] utilizationEnergyCharge 66035.291503906
scalar OsgEarthNet.uav[0] utilizationEnergyOverdrawMission 0
scalar OsgEarthNet.uav[0] utilizationEnergyOverdrawMaintenance 0
scalar OsgEarthNet.uav[0] utilizationCountMissions 14
scalar OsgEarthNet.uav[0] utilizationCountManeuversMission 171
scalar OsgEarthNet.uav[0] utilizationCountManeuversMaintenance 29
scalar OsgEarthNet.uav[0] utilizationCountChargeState 14
scalar OsgEarthNet.uav[0] utilizationCountOverdrawnAfterMission 0
scalar OsgEarthNet.uav[0] utilizationCountIdleState 10
scalar OsgEarthNet.uav[0] utilizationFail 0
scalar OsgEarthNet.uav[0] simulationTime 259200
scalar OsgEarthNet.uav[1] utilizationSecMission 7484.1178842692
scalar OsgEarthNet.uav[1] utilizationSecMaintenance 3175.3636731014
scalar OsgEarthNet.uav[1] utilizationSecCharge 39860
scalar OsgEarthNet.uav[1] utilizationSecIdle 208680.51744263
scalar OsgEarthNet.uav[1] utilizationEnergyMission 35549.634712219
scalar OsgEarthNet.uav[1] utilizationEnergyMaintenance 15201.21043396
scalar OsgEarthNet.uav[1] utilizationEnergyCharge 50750.857421875
scalar OsgEarthNet.uav[1] utilizationEnergyOverdrawMission 0
scalar OsgEarthNet.uav[1] utilizationEnergyOverdrawMaintenance 0
scalar OsgEarthNet.uav[1] utilizationCountMissions 11
scalar OsgEarthNet.uav[1] utilizationCountManeuversMission 130
scalar OsgEarthNet.uav[1] utilizationCountManeuversMaintenance 22
scalar OsgEarthNet.uav[1] utilizationCountChargeState 11
scalar OsgEarthNet.uav[1] utilizationCountOverdrawnAfterMission 0
scalar OsgEarthNet.uav[1] utilizationCountIdleState 7
scalar OsgEarthNet.uav[1] utilizationFail 0
scalar OsgEarthNet.uav[1] simulationTime 259200
scalar OsgEarthNet.uav[2] utilizationSecMission 4858.845292086
scalar OsgEarthNet.uav[2] utilizationSecMaintenance 1457.0362663863
scalar OsgEarthNet.uav[2] utilizationSecCharge 22810
scalar OsgEarthNet.uav[2] utilizationSecIdle 230074.11744153
scalar OsgEarthNet.uav[2] utilizationEnergyMission 22296.118309021
scalar OsgEarthNet.uav[2] utilizationEnergyMaintenance 6556.3522071838
scalar OsgEarthNet.uav[2] utilizationEnergyCharge 28681.962890625
scalar OsgEarthNet.uav[2] utilizationEnergyOverdrawMission 0
scalar OsgEarthNet.uav[2] utilizationEnergyOverdrawMaintenance 0
scalar OsgEarthNet.uav[2] utilizationCountMissions 6
scalar OsgEarthNet.uav[2] utilizationCountManeuversMission 83
scalar OsgEarthNet.uav[2] utilizationCountManeuversMaintenance 12
scalar OsgEarthNet.uav[2] utilizationCountChargeState 6
scalar OsgEarthNet.uav[2] utilizationCountOverdrawnAfterMission 0
scalar OsgEarthNet.uav[2] utilizationCountIdleState 7
scalar OsgEarthNet.uav[2] utilizationFail 0
scalar OsgEarthNet.uav[2] simulationTime 259200
scalar OsgEarthNet.uav[3] utilizationSecMission 15108.298800585
scalar OsgEarthNet.uav[3] utilizationSecMaintenance 4882.9869762255
scalar OsgEarthNet.uav[3] utilizationSecCharge 71013.767182123
scalar OsgEarthNet.uav[3] utilizationSecIdle 168194.94604107
scalar OsgEarthNet.uav[3] utilizationEnergyMission 69604.58757019
scalar OsgEarthNet.uav[3] utilizationEnergyMaintenance 23337.530666351
scalar OsgEarthNet.uav[3] utilizationEnergyCharge 90489.453369141
scalar OsgEarthNet.uav[3] utilizationEnergyOverdrawMission 0
scalar OsgEarthNet.uav[3] utilizationEnergyOverdrawMaintenance 0
scalar OsgEarthNet.uav[3] utilizationCountMissions 20
scalar OsgEarthNet.uav[3] utilizationCountManeuversMission 230
scalar OsgEarthNet.uav[3] utilizationCountManeuversMaintenance 40
scalar OsgEarthNet.uav[3] utilizationCountChargeState 20
scalar OsgEarthNet.uav[3] utilizationCountOverdrawnAfterMission 0
scalar OsgEarthNet.uav[3] utilizationCountIdleState 14
scalar OsgEarthNet.uav[3] utilizationFail 0
scalar OsgEarthNet.uav[3] simulationTime 259200
scalar OsgEarthNet.uav[4] utilizationSecMission 1311.10660367
scalar OsgEarthNet.uav[4] utilizationSecMaintenance 669.39310336273
scalar OsgEarthNet.uav[4] utilizationSecCharge 7660
scalar OsgEarthNet.uav[4] utilizationSecIdle 249559.49929297
scalar OsgEarthNet.uav[4] utilizationEnergyMission 6079.9761962891
scalar OsgEarthNet.uav[4] utilizationEnergyMaintenance 3597.6823959351
scalar OsgEarthNet.uav[4] utilizationEnergyCharge 9677.6674804688
scalar OsgEarthNet.uav[4] utilizationEnergyOverdrawMission 0
scalar OsgEarthNet.uav[4] utilizationEnergyOverdrawMaintenance 0
scalar OsgEarthNet.uav[4] utilizationCountMissions 2
scalar OsgEarthNet.uav[4] utilizationCountManeuversMission 20
scalar OsgEarthNet.uav[4] utilizationCountManeuversMaintenance 4
scalar OsgEarthNet.uav[4] utilizationCountChargeState 2
scalar OsgEarthNet.uav[4] utilizationCountOverdrawnAfterMission 0
scalar OsgEarthNet.uav[4] utilizationCountIdleState 3
scalar OsgEarthNet.uav[4] utilizationFail 0
scalar OsgEarthNet.uav[4] simulationTime 259200
scalar OsgEarthNet.uav[5] utilizationSecMission 21754.396954782
scalar OsgEarthNet.uav[5] utilizationSecMaintenance 7488.1517811867
scalar OsgEarthNet.uav[5] utilizationSecCharge 106310
scalar OsgEarthNet.uav[5] utilizationSecIdle 123647.45026403
scalar OsgEarthNet.uav[5] utilizationEnergyMission 101152.40635118
scalar OsgEarthNet.uav[5] utilizationEnergyMaintenance 34907.046062469
scalar OsgEarthNet.uav[5] utilizationEnergyCharge 133991.24169922
scalar OsgEarthNet.uav[5] utilizationEnergyOverdrawMission 0
scalar OsgEarthNet.uav[5] utilizationEnergyOverdrawMaintenance 0
scalar OsgEarthNet.uav[5] utilizationCountMissions 28
scalar OsgEarthNet.uav[5] utilizationCountManeuversMission 377
scalar OsgEarthNet.uav[5] utilizationCountManeuversMaintenance 57
scalar OsgEarthNet.uav[5] utilizationCountChargeState 28
scalar OsgEarthNet.uav[5] utilizationCountOverdrawnAfterMission 0
scalar OsgEarthNet.uav[5] utilizationCountIdleState 29
scalar OsgEarthNet.uav[5] utilizationFail 0
scalar OsgEarthNet.uav[5] simulationTime 259200
scalar OsgEarthNet.uav[6] utilizationSecMission 16408.181370418
scalar OsgEarthNet.uav[6] utilizationSecMaintenance 5177.3590935908
scalar OsgEarthNet.uav[6] utilizationSecCharge 77142.035500947
scalar OsgEarthNet.uav[6] utilizationSecIdle 160472.42303504
scalar OsgEarthNet.uav[6] utilizationEnergyMission 75990.417160034
scalar OsgEarthNet.uav[6] utilizationEnergyMaintenance 24915.170063019
scalar OsgEarthNet.uav[6] utilizationEnergyCharge 97274.301940918
scalar OsgEarthNet.uav[6] utilizationEnergyOverdrawMission 0
scalar OsgEarthNet.uav[6] utilizationEnergyOverdrawMaintenance 0
scalar OsgEarthNet.uav[6] utilizationCountMissions 22
scalar OsgEarthNet.uav[6] utilizationCountManeuversMission 249
scalar OsgEarthNet.uav[6] utilizationCountManeuversMaintenance 44
scalar OsgEarthNet.uav[6] utilizationCountChargeState 22
scalar OsgEarthNet.uav[6] utilizationCountOverdrawnAfterMission 0
scalar OsgEarthNet.uav[6] utilizationCountIdleState 16
scalar OsgEarthNet.uav[6] utilizationFail 0
scalar OsgEarthNet.uav[6] simulationTime 259200
scalar OsgEarthNet.uav[7] utilizationSecMission 7321.0888136996
scalar OsgEarthNet.uav[7] utilizationSecMaintenance 3713.6283126515
scalar OsgEarthNet.uav[7] utilizationSecCharge 40950
scalar OsgEarthNet.uav[7] utilizationSecIdle 207215.28187365
scalar OsgEarthNet.uav[7] utilizationEnergyMission 33974.797836304
scalar OsgEarthNet.uav[7] utilizationEnergyMaintenance 18210.436294556
scalar OsgEarthNet.uav[7] utilizationEnergyCharge 52185.237304688
scalar OsgEarthNet.uav[7] utilizationEnergyOverdrawMission 0
scalar OsgEarthNet.uav[7] utilizationEnergyOverdrawMaintenance 0
scalar OsgEarthNet.uav[7] utilizationCountMissions 11
scalar OsgEarthNet.uav[7] utilizationCountManeuversMission 125
scalar OsgEarthNet.uav[7] utilizationCountManeuversMaintenance 22
scalar OsgEarthNet.uav[7] utilizationCountChargeState 11
scalar OsgEarthNet.uav[7] utilizationCountOverdrawnAfterMission 0
scalar OsgEarthNet.uav[7] utilizationCountIdleState 8
scalar OsgEarthNet.uav[7] utilizationFail 0
scalar OsgEarthNet.uav[7] simulationTime 259200
scalar OsgEarthNet.uav[8] utilizationSecMission 5591.8341186657
scalar OsgEarthNet.uav[8] utilizationSecMaintenance 2164.6453254627
scalar OsgEarthNet.uav[8] utilizationSecCharge 29190
scalar OsgEarthNet.uav[8] utilizationSecIdle 222253.51955587
scalar OsgEarthNet.uav[8] utilizationEnergyMission 26393.388137817
scalar OsgEarthNet.uav[8] utilizationEnergyMaintenance 10224.50088501
scalar OsgEarthNet.uav[8] utilizationEnergyCharge 36617.889648438
scalar OsgEarthNet.uav[8] utilizationEnergyOverdrawMission 0
scalar OsgEarthNet.uav[8] utilizationEnergyOverdrawMaintenance 0
scalar OsgEarthNet.uav[8] utilizationCountMissions 8
scalar OsgEarthNet.uav[8] utilizationCountManeuversMission 86
scalar OsgEarthNet.uav[8] utilizationCountManeuversMaintenance 16
scalar OsgEarthNet.uav[8] utilizationCountChargeState 8
scalar OsgEarthNet.uav[8] utilizationCountOverdrawnAfterMission 0
scalar OsgEarthNet.uav[8] utilizationCountIdleState 8
scalar OsgEarthNet.uav[8] utilizationFail 0
scalar OsgEarthNet.uav[8] simulationTime 259200
scalar OsgEarthNet.uav[9] utilizationSecMission 11911.375838817
scalar OsgEarthNet.uav[9] utilizationSecMaintenance 4159.4230149786
scalar OsgEarthNet.uav[9] utilizationSecCharge 60090
scalar OsgEarthNet.uav[9] utilizationSecIdle 183039.2001462
scalar OsgEarthNet.uav[9] utilizationEnergyMission 55224.606513977
scalar OsgEarthNet.uav[9] utilizationEnergyMaintenance 20137.809143066
scalar OsgEarthNet.uav[9] utilizationEnergyCharge 75197.838378906
scalar OsgEarthNet.uav[9] utilizationEnergyOverdrawMission 0
scalar OsgEarthNet.uav[9] utilizationEnergyOverdrawMaintenance 0
scalar OsgEarthNet.uav[9] utilizationCountMissions 16
scalar OsgEarthNet.uav[9] utilizationCountManeuversMission 180
scalar OsgEarthNet.uav[9] utilizationCountManeuversMaintenance 32
scalar OsgEarthNet.uav[9] utilizationCountChargeState 16
scalar OsgEarthNet.uav[9] utilizationCountOverdrawnAfterMission 0
scalar OsgEarthNet.uav[9] utilizationCountIdleState 17
scalar OsgEarthNet.uav[9] utilizationFail 0
scalar OsgEarthNet.uav[9] simulationTime 259200
scalar OsgEarthNet.uav[10] utilizationSecMission 3354.6062313063
scalar OsgEarthNet.uav[10] utilizationSecMaintenance 1625.7561649347
scalar OsgEarthNet.uav[10] utilizationSecCharge 18840
scalar OsgEarthNet.uav[10] utilizationSecIdle 235379.63660376
scalar OsgEarthNet.uav[10] utilizationEnergyMission 15609.313301086
scalar OsgEarthNet.uav[10] utilizationEnergyMaintenance 8063.453742981
scalar OsgEarthNet.uav[10] utilizationEnergyCharge 23672.767578125
scalar OsgEarthNet.uav[10] utilizationEnergyOverdrawMission 0
scalar OsgEarthNet.uav[10] utilizationEnergyOverdrawMaintenance 0
scalar OsgEarthNet.uav[10] utilizationCountMissions 5
scalar OsgEarthNet.uav[10] utilizationCountManeuversMission 54
scalar OsgEarthNet.uav[10] utilizationCountManeuversMaintenance 10
scalar OsgEarthNet.uav[10] utilizationCountChargeState 5
scalar OsgEarthNet.uav[10] utilizationCountOverdrawnAfterMission 0
scalar OsgEarthNet.uav[10] utilizationCountIdleState 6
scalar OsgEarthNet.uav[10] utilizationFail 0
scalar OsgEarthNet.uav[10] simulationTime 259200
scalar OsgEarthNet.uav[11] utilizationSecMission 1311.10660367
scalar OsgEarthNet.uav[11] utilizationSecMaintenance 669.39310336273
scalar OsgEarthNet.uav[11] utilizationSecCharge 7470
scalar OsgEarthNet.uav[11] utilizationSecIdle 249749.49929297
scalar OsgEarthNet.uav[11] utilizationEnergyMission 6041.0484085083
scalar OsgEarthNet.uav[11] utilizationEnergyMaintenance 3310.3958358765
scalar OsgEarthNet.uav[11] utilizationEnergyCharge 9351.43359375
scalar OsgEarthNet.uav[11] utilizationEnergyOverdrawMission 0
scalar OsgEarthNet.uav[11] utilizationEnergyOverdrawMaintenance 0
scalar OsgEarthNet.uav[11] utilizationCountMissions 2
scalar OsgEarthNet.uav[11] utilizationCountManeuversMission 20
scalar OsgEarthNet.uav[11] utilizationCountManeuversMaintenance 4
scalar OsgEarthNet.uav[11] utilizationCountChargeState 2
scalar OsgEarthNet.uav[11] utilizationCountOverdrawnAfterMission 0
scalar OsgEarthNet.uav[11] utilizationCountIdleState 3
scalar OsgEarthNet.uav[11] utilizationFail 0
scalar OsgEarthNet.uav[11] simulationTime 259200
scalar OsgEarthNet.uav[12] utilizationSecMission 9868.574091182
scalar OsgEarthNet.uav[12] utilizationSecMaintenance 3599.767798526
scalar OsgEarthNet.uav[12] utilizationSecCharge 49290
scalar OsgEarthNet.uav[12] utilizationSecIdle 196441.65711029
scalar OsgEarthNet.uav[12] utilizationEnergyMission 45548.71559906
scalar OsgEarthNet.uav[12] utilizationEnergyMaintenance 16750.992519379
scalar OsgEarthNet.uav[12] utilizationEnergyCharge 61833.579101562
scalar OsgEarthNet.uav[12] utilizationEnergyOverdrawMission 0
scalar OsgEarthNet.uav[12] utilizationEnergyOverdrawMaintenance 0
scalar OsgEarthNet.uav[12] utilizationCountMissions 13
scalar OsgEarthNet.uav[12] utilizationCountManeuversMission 170
scalar OsgEarthNet.uav[12] utilizationCountManeuversMaintenance 26
scalar OsgEarthNet.uav[12] utilizationCountChargeState 13
scalar OsgEarthNet.uav[12] utilizationCountOverdrawnAfterMission 0
scalar OsgEarthNet.uav[12] utilizationCountIdleState 14
scalar OsgEarthNet.uav[12] utilizationFail 0
scalar OsgEarthNet.uav[12] simulationTime 259200
scalar OsgEarthNet.uav[13] utilizationSecMission 15910.605653574
scalar OsgEarthNet.uav[13] utilizationSecMaintenance 4818.3420762221
scalar OsgEarthNet.uav[13] utilizationSecCharge 75264.220351908
scalar OsgEarthNet.uav[13] utilizationSecIdle 163206.8309183
scalar OsgEarthNet.uav[13] utilizationEnergyMission 73355.59752655
scalar OsgEarthNet.uav[13] utilizationEnergyMaintenance 23817.228847504
scalar OsgEarthNet.uav[13] utilizationEnergyCharge 95873.134277344
scalar OsgEarthNet.uav[13] utilizationEnergyOverdrawMission 0
scalar OsgEarthNet.uav[13] utilizationEnergyOverdrawMaintenance 0
scalar OsgEarthNet.uav[13] utilizationCountMissions 21
scalar OsgEarthNet.uav[13] utilizationCountManeuversMission 246
scalar OsgEarthNet.uav[13] utilizationCountManeuversMaintenance 42
scalar OsgEarthNet.uav[13] utilizationCountChargeState 21
scalar OsgEarthNet.uav[13] utilizationCountOverdrawnAfterMission 0
scalar OsgEarthNet.uav[13] utilizationCountIdleState 17
scalar OsgEarthNet.uav[13] utilizationFail 0
scalar OsgEarthNet.uav[13] simulationTime 259200
scalar OsgEarthNet.uav[14] utilizationSecMission 8388.8259346926
scalar OsgEarthNet.uav[14] utilizationSecMaintenance 4407.877624428
scalar OsgEarthNet.uav[14] utilizationSecCharge 47550
scalar OsgEarthNet.uav[14] utilizationSecIdle 198853.29544088
scalar OsgEarthNet.uav[14] utilizationEnergyMission 39668.862670898
scalar OsgEarthNet.uav[14] utilizationEnergyMaintenance 21028.855140686
scalar OsgEarthNet.uav[14] utilizationEnergyCharge 60697.723144531
scalar OsgEarthNet.uav[14] utilizationEnergyOverdrawMission 0
scalar OsgEarthNet.uav[14] utilizationEnergyOverdrawMaintenance 0
scalar OsgEarthNet.uav[14] utilizationCountMissions 13
scalar OsgEarthNet.uav[14] utilizationCountManeuversMission 145
scalar OsgEarthNet.uav[14] utilizationCountManeuversMaintenance 26
scalar OsgEarthNet.uav[14] utilizationCountChargeState 13
scalar OsgEarthNet.uav[14] utilizationCountOverdrawnAfterMission 0
scalar OsgEarthNet.uav[14] utilizationCountIdleState 10
scalar OsgEarthNet.uav[14] utilizationFail 0
scalar OsgEarthNet.uav[14] simulationTime 259200
scalar OsgEarthNet.uav[15] utilizationSecMission 5266.3476950496
scalar OsgEarthNet.uav[15] utilizationSecMaintenance 2636.3625377686
scalar OsgEarthNet.uav[15] utilizationSecCharge 29240
scalar OsgEarthNet.uav[15] utilizationSecIdle 222057.28876718
scalar OsgEarthNet.uav[15] utilizationEnergyMission 24781.597137451
scalar OsgEarthNet.uav[15] utilizationEnergyMaintenance 12036.284698486
scalar OsgEarthNet.uav[15] utilizationEnergyCharge 36817.883300781
scalar OsgEarthNet.uav[15] utilizationEnergyOverdrawMission 0
scalar OsgEarthNet.uav[15] utilizationEnergyOverdrawMaintenance 0
scalar OsgEarthNet.uav[15] utilizationCountMissions 8
scalar OsgEarthNet.uav[15] utilizationCountManeuversMission 87
scalar OsgEarthNet.uav[15] utilizationCountManeuversMaintenance 16
scalar OsgEarthNet.uav[15] utilizationCountChargeState 8
scalar OsgEarthNet.uav[15] utilizationCountOverdrawnAfterMission 0
scalar OsgEarthNet.uav[15] utilizationCountIdleState 6
scalar OsgEarthNet.uav[15] utilizationFail 0
scalar OsgEarthNet.uav[15] simulationTime 259200
scalar OsgEarthNet.uav[16] utilizationSecMission 20333.027385057
scalar OsgEarthNet.uav[16] utilizationSecMaintenance 7567.6259702984
scalar OsgEarthNet.uav[16] utilizationSecCharge 103260
scalar OsgEarthNet.uav[16] utilizationSecIdle 128039.34564464
scalar OsgEarthNet.uav[16] utilizationEnergyMission 94151.292800903
scalar OsgEarthNet.uav[16] utilizationEnergyMaintenance 35783.341304779
scalar OsgEarthNet.uav[16] utilizationEnergyCharge 129604.14990234
scalar OsgEarthNet.uav[16] utilizationEnergyOverdrawMission 0
scalar OsgEarthNet.uav[16] utilizationEnergyOverdrawMaintenance 0
scalar OsgEarthNet.uav[16] utilizationCountMissions 28
scalar OsgEarthNet.uav[16] utilizationCountManeuversMission 326
scalar OsgEarthNet.uav[16] utilizationCountManeuversMaintenance 56
scalar OsgEarthNet.uav[16] utilizationCountChargeState 28
scalar OsgEarthNet.uav[16] utilizationCountOverdrawnAfterMission 0
scalar OsgEarthNet.uav[16] utilizationCountIdleState 25
scalar OsgEarthNet.uav[16] utilizationFail 0
scalar OsgEarthNet.uav[16] simulationTime 259200
scalar OsgEarthNet.uav[17] utilizationSecMission 3969.074191322
scalar OsgEarthNet.uav[17] utilizationSecMaintenance 2122.5662326257
scalar OsgEarthNet.uav[17] utilizationSecCharge 22880
scalar OsgEarthNet.uav[17] utilizationSecIdle 230228.35857605
scalar OsgEarthNet.uav[17] utilizationEnergyMission 18588.904556274
scalar OsgEarthNet.uav[17] utilizationEnergyMaintenance 10205.382850647
scalar OsgEarthNet.uav[17] utilizationEnergyCharge 28794.291992188
scalar OsgEarthNet.uav[17] utilizationEnergyOverdrawMission 0
scalar OsgEarthNet.uav[17] utilizationEnergyOverdrawMaintenance 0
scalar OsgEarthNet.uav[17] utilizationCountMissions 6
scalar OsgEarthNet.uav[17] utilizationCountManeuversMission 65
scalar OsgEarthNet.uav[17] utilizationCountManeuversMaintenance 12
scalar OsgEarthNet.uav[17] utilizationCountChargeState 6
scalar OsgEarthNet.uav[17] utilizationCountOverdrawnAfterMission 0
scalar OsgEarthNet.uav[17] utilizationCountIdleState 7
scalar OsgEarthNet.uav[17] utilizationFail 0
scalar OsgEarthNet.uav[17] simulationTime 259200
scalar OsgEarthNet.uav[18] utilizationSecMission 16629.582909093
scalar OsgEarthNet.uav[18] utilizationSecMaintenance 4234.1178487734
scalar OsgEarthNet.uav[18] utilizationSecCharge 76200
scalar OsgEarthNet.uav[18] utilizationSecIdle 162136.29824213
scalar OsgEarthNet.uav[18] utilizationEnergyMission 76623.452468872
scalar OsgEarthNet.uav[18] utilizationEnergyMaintenance 19689.105667114
scalar OsgEarthNet.uav[18] utilizationEnergyCharge 95951.358398438
scalar OsgEarthNet.uav[18] utilizationEnergyOverdrawMission 0
scalar OsgEarthNet.uav[18] utilizationEnergyOverdrawMaintenance 0
scalar OsgEarthNet.uav[18] utilizationCountMissions 20
scalar OsgEarthNet.uav[18] utilizationCountManeuversMission 275
scalar OsgEarthNet.uav[18] utilizationCountManeuversMaintenance 40
scalar OsgEarthNet.uav[18] utilizationCountChargeState 20
scalar OsgEarthNet.uav[18] utilizationCountOverdrawnAfterMission 0
scalar OsgEarthNet.uav[18] utilizationCountIdleState 21
scalar OsgEarthNet.uav[18] utilizationFail 0
scalar OsgEarthNet.uav[18] simulationTime 259200
scalar OsgEarthNet.uav[19] utilizationSecMission 6984.3395609733
scalar OsgEarthNet.uav[19] utilizationSecMaintenance 2947.2093781996
scalar OsgEarthNet.uav[19] utilizationSecCharge 37350
scalar OsgEarthNet.uav[19] utilizationSecIdle 211918.45006083
scalar OsgEarthNet.uav[19] utilizationEnergyMission 32192.741737366
scalar OsgEarthNet.uav[19] utilizationEnergyMaintenance 14385.459842682
scalar OsgEarthNet.uav[19] utilizationEnergyCharge 46578.203613281
scalar OsgEarthNet.uav[19] utilizationEnergyOverdrawMission 0
scalar OsgEarthNet.uav[19] utilizationEnergyOverdrawMaintenance 0
scalar OsgEarthNet.uav[19] utilizationCountMissions 10
scalar OsgEarthNet.uav[19] utilizationCountManeuversMission 108
scalar OsgEarthNet.uav[19] utilizationCountManeuversMaintenance 20
scalar OsgEarthNet.uav[19] utilizationCountChargeState 10
scalar OsgEarthNet.uav[19] utilizationCountOverdrawnAfterMission 0
scalar OsgEarthNet.uav[19] utilizationCountIdleState 11
scalar OsgEarthNet.uav[19] utilizationFail 0
scalar OsgEarthNet.uav[19] simulationTime 259200
scalar OsgEarthNet.uav[20] utilizationSecMission 20073.968084883
scalar OsgEarthNet.uav[20] utilizationSecMaintenance 6623.9541414145
scalar OsgEarthNet.uav[20] utilizationSecCharge 99740
scalar OsgEarthNet.uav[20] utilizationSecIdle 132762.0767737
scalar OsgEarthNet.uav[20] utilizationEnergyMission 92708.842636108
scalar OsgEarthNet.uav[20] utilizationEnergyMaintenance 31694.830612183
scalar OsgEarthNet.uav[20] utilizationEnergyCharge 124403.67822266
scalar OsgEarthNet.uav[20] utilizationEnergyOverdrawMission 0
scalar OsgEarthNet.uav[20] utilizationEnergyOverdrawMaintenance 0
scalar OsgEarthNet.uav[20] utilizationCountMissions 27
scalar OsgEarthNet.uav[20] utilizationCountManeuversMission 302
scalar OsgEarthNet.uav[20] utilizationCountManeuversMaintenance 54
scalar OsgEarthNet.uav[20] utilizationCountChargeState 27
scalar OsgEarthNet.uav[20] utilizationCountOverdrawnAfterMission 0
scalar OsgEarthNet.uav[20] utilizationCountIdleState 28
scalar OsgEarthNet.uav[20] utilizationFail 0
scalar OsgEarthNet.uav[20] simulationTime 259200
scalar OsgEarthNet.uav[21] utilizationSecMission 2842.5058694625
scalar OsgEarthNet.uav[21] utilizationSecMaintenance 1200.338233954
scalar OsgEarthNet.uav[21] utilizationSecCharge 15190
scalar OsgEarthNet.uav[21] utilizationSecIdle 239967.15489658
scalar OsgEarthNet.uav[21] utilizationEnergyMission 13253.859291077
scalar OsgEarthNet.uav[21] utilizationEnergyMaintenance 5808.0380821228
scalar OsgEarthNet.uav[21] utilizationEnergyCharge 19061.889160156
scalar OsgEarthNet.uav[21] utilizationEnergyOverdrawMission 0
scalar OsgEarthNet.uav[21] utilizationEnergyOverdrawMaintenance 0
scalar OsgEarthNet.uav[21] utilizationCountMissions 4
scalar OsgEarthNet.uav[21] utilizationCountManeuversMission 46
scalar OsgEarthNet.uav[21] utilizationCountManeuversMaintenance 8
scalar OsgEarthNet.uav[21] utilizationCountChargeState 4
scalar OsgEarthNet.uav[21] utilizationCountOverdrawnAfterMission 0
scalar OsgEarthNet.uav[21] utilizationCountIdleState 5
scalar OsgEarthNet.uav[21] utilizationFail 0
scalar OsgEarthNet.uav[21] simulationTime 259200
scalar OsgEarthNet.uav[22] utilizationSecMission 18272.978010647
scalar OsgEarthNet.uav[22] utilizationSecMaintenance 5296.3573170158
scalar OsgEarthNet.uav[22] utilizationSecCharge 84241.950225322
scalar OsgEarthNet.uav[22] utilizationSecIdle 151388.71344702
scalar OsgEarthNet.uav[22] utilizationEnergyMission 85840.59746933
scalar OsgEarthNet.uav[22] utilizationEnergyMaintenance 24192.92546463
scalar OsgEarthNet.uav[22] utilizationEnergyCharge 106078.27716064
scalar OsgEarthNet.uav[22] utilizationEnergyOverdrawMission 0
scalar OsgEarthNet.uav[22] utilizationEnergyOverdrawMaintenance 0
scalar OsgEarthNet.uav[22] utilizationCountMissions 23
scalar OsgEarthNet.uav[22] utilizationCountManeuversMission 308
scalar OsgEarthNet.uav[22] utilizationCountManeuversMaintenance 46
scalar OsgEarthNet.uav[22] utilizationCountChargeState 23
scalar OsgEarthNet.uav[22] utilizationCountOverdrawnAfterMission 0
scalar OsgEarthNet.uav[22] utilizationCountIdleState 23
scalar OsgEarthNet.uav[22] utilizationFail 0
scalar OsgEarthNet.uav[22] simulationTime 259200
scalar OsgEarthNet.uav[23] utilizationSecMission 21715.260604576
scalar OsgEarthNet.uav[23] utilizationSecMaintenance 6951.0718873744
scalar OsgEarthNet.uav[23] utilizationSecCharge 106279.36501965
scalar OsgEarthNet.uav[23] utilizationSecIdle 124254.3014884
scalar OsgEarthNet.uav[23] utilizationEnergyMission 100911.82025146
scalar OsgEarthNet.uav[23] utilizationEnergyMaintenance 33602.262123108
scalar OsgEarthNet.uav[23] utilizationEnergyCharge 134280.85595703
scalar OsgEarthNet.uav[23] utilizationEnergyOverdrawMission 0
scalar OsgEarthNet.uav[23] utilizationEnergyOverdrawMaintenance 0
scalar OsgEarthNet.uav[23] utilizationCountMissions 29
scalar OsgEarthNet.uav[23] utilizationCountManeuversMission 330
scalar OsgEarthNet.uav[23] utilizationCountManeuversMaintenance 58
scalar OsgEarthNet.uav[23] utilizationCountChargeState 29
scalar OsgEarthNet.uav[23] utilizationCountOverdrawnAfterMission 0
scalar OsgEarthNet.uav[23] utilizationCountIdleState 27
scalar OsgEarthNet.uav[23] utilizationFail 0
scalar OsgEarthNet.uav[23] simulationTime 259200
scalar OsgEarthNet.uav[24] utilizationSecMission 743.20678019818
scalar OsgEarthNet.uav[24] utilizationSecMaintenance 295.89994741134
scalar OsgEarthNet.uav[24] utilizationSecCharge 3860
scalar OsgEarthNet.uav[24] utilizationSecIdle 254300.89227239
scalar OsgEarthNet.uav[24] utilizationEnergyMission 3434.4286804199
scalar OsgEarthNet.uav[24] utilizationEnergyMaintenance 1429.6122055054
scalar OsgEarthNet.uav[24] utilizationEnergyCharge 4864.0375976562
scalar OsgEarthNet.uav[24] utilizationEnergyOverdrawMission 0
scalar OsgEarthNet.uav[24] utilizationEnergyOverdrawMaintenance 0
scalar OsgEarthNet.uav[24] utilizationCountMissions 1
scalar OsgEarthNet.uav[24] utilizationCountManeuversMission 12
scalar OsgEarthNet.uav[24] utilizationCountManeuversMaintenance 2
scalar OsgEarthNet.uav[24] utilizationCountChargeState 1
scalar OsgEarthNet.uav[24] utilizationCountOverdrawnAfterMission 0
scalar OsgEarthNet.uav[24] utilizationCountIdleState 2
scalar OsgEarthNet.uav[24] utilizationFail 0
scalar OsgEarthNet.uav[24] simulationTime 259200
scalar OsgEarthNet.uav[25] utilizationSecMission 17670.257277471
scalar OsgEarthNet.uav[25] utilizationSecMaintenance 6153.5530054853
scalar OsgEarthNet.uav[25] utilizationSecCharge 87510
scalar OsgEarthNet.uav[25] utilizationSecIdle 147866.18871704
scalar OsgEarthNet.uav[25] utilizationEnergyMission 81646.121570587
scalar OsgEarthNet.uav[25] utilizationEnergyMaintenance 28870.778339386
scalar OsgEarthNet.uav[25] utilizationEnergyCharge 110087.90185547
scalar OsgEarthNet.uav[25] utilizationEnergyOverdrawMission 0
scalar OsgEarthNet.uav[25] utilizationEnergyOverdrawMaintenance 0
scalar OsgEarthNet.uav[25] utilizationCountMissions 23
scalar OsgEarthNet.uav[25] utilizationCountManeuversMission 308
scalar OsgEarthNet.uav[25] utilizationCountManeuversMaintenance 46
scalar OsgEarthNet.uav[25] utilizationCountChargeState 23
scalar OsgEarthNet.uav[25] utilizationCountOverdrawnAfterMission 0
scalar OsgEarthNet.uav[25] utilizationCountIdleState 24
scalar OsgEarthNet.uav[25] utilizationFail 0
scalar OsgEarthNet.uav[25] simulationTime 259200
scalar OsgEarthNet.uav[26] utilizationSecMission 2648.1209352265
scalar OsgEarthNet.uav[26] utilizationSecMaintenance 1430.9464113976
scalar OsgEarthNet.uav[26] utilizationSecCharge 15120
scalar OsgEarthNet.uav[26] utilizationSecIdle 240000.93165338
scalar OsgEarthNet.uav[26] utilizationEnergyMission 11937.777877808
scalar OsgEarthNet.uav[26] utilizationEnergyMaintenance 7037.4748191833
scalar OsgEarthNet.uav[26] utilizationEnergyCharge 18900.395019531
scalar OsgEarthNet.uav[26] utilizationEnergyOverdrawMission 0
scalar OsgEarthNet.uav[26] utilizationEnergyOverdrawMaintenance 0
scalar OsgEarthNet.uav[26] utilizationCountMissions 4
scalar OsgEarthNet.uav[26] utilizationCountManeuversMission 42
scalar OsgEarthNet.uav[26] utilizationCountManeuversMaintenance 8
scalar OsgEarthNet.uav[26] utilizationCountChargeState 4
scalar OsgEarthNet.uav[26] utilizationCountOverdrawnAfterMission 0
scalar OsgEarthNet.uav[26] utilizationCountIdleState 5
scalar OsgEarthNet.uav[26] utilizationFail 0
scalar OsgEarthNet.uav[26] simulationTime 259200
scalar OsgEarthNet.uav[27] utilizationSecMission 4110.0889811943
scalar OsgEarthNet.uav[27] utilizationSecMaintenance 1963.6992368752
scalar OsgEarthNet.uav[27] utilizationSecCharge 21950
scalar OsgEarthNet.uav[27] utilizationSecIdle 231176.21078193
scalar OsgEarthNet.uav[27] utilizationEnergyMission 18558.015830994
scalar OsgEarthNet.uav[27] utilizationEnergyMaintenance 9251.5867500305
scalar OsgEarthNet.uav[27] utilizationEnergyCharge 27809.610351562
scalar OsgEarthNet.uav[27] utilizationEnergyOverdrawMission 0
scalar OsgEarthNet.uav[27] utilizationEnergyOverdrawMaintenance 0
scalar OsgEarthNet.uav[27] utilizationCountMissions 6
scalar OsgEarthNet.uav[27] utilizationCountManeuversMission 70
scalar OsgEarthNet.uav[27] utilizationCountManeuversMaintenance 12
scalar OsgEarthNet.uav[27] utilizationCountChargeState 6
scalar OsgEarthNet.uav[27] utilizationCountOverdrawnAfterMission 0
scalar OsgEarthNet.uav[27] utilizationCountIdleState 6
scalar OsgEarthNet.uav[27] utilizationFail 0
scalar OsgEarthNet.uav[27] simulationTime 259200
scalar OsgEarthNet.uav[28] utilizationSecMission 3878.0001842174
scalar OsgEarthNet.uav[28] utilizationSecMaintenance 2091.1419876567
scalar OsgEarthNet.uav[28] utilizationSecCharge 22300
scalar OsgEarthNet.uav[28] utilizationSecIdle 230930.85682813
scalar OsgEarthNet.uav[28] utilizationEnergyMission 17872.761489868
scalar OsgEarthNet.uav[28] utilizationEnergyMaintenance 10320.06943512
scalar OsgEarthNet.uav[28] utilizationEnergyCharge 28192.833007812
scalar OsgEarthNet.uav[28] utilizationEnergyOverdrawMission 0
scalar OsgEarthNet.uav[28] utilizationEnergyOverdrawMaintenance 0
scalar OsgEarthNet.uav[28] utilizationCountMissions 6
scalar OsgEarthNet.uav[28] utilizationCountManeuversMission 58
scalar OsgEarthNet.uav[28] utilizationCountManeuversMaintenance 12
scalar OsgEarthNet.uav[28] utilizationCountChargeState 6
scalar OsgEarthNet.uav[28] utilizationCountOverdrawnAfterMission 0
scalar OsgEarthNet.uav[28] utilizationCountIdleState 6
scalar OsgEarthNet.uav[28] utilizationFail 0
scalar OsgEarthNet.uav[28] simulationTime 259200
scalar OsgEarthNet.uav[29] utilizationSecMission 13293.756492199
scalar OsgEarthNet.uav[29] utilizationSecMaintenance 5328.5489220092
scalar OsgEarthNet.uav[29] utilizationSecCharge 69480
scalar OsgEarthNet.uav[29] utilizationSecIdle 171097.69358579
scalar OsgEarthNet.uav[29] utilizationEnergyMission 60769.479637146
scalar OsgEarthNet.uav[29] utilizationEnergyMaintenance 25500.470962524
scalar OsgEarthNet.uav[29] utilizationEnergyCharge 86227.887695312
scalar OsgEarthNet.uav[29] utilizationEnergyOverdrawMission 0
scalar OsgEarthNet.uav[29] utilizationEnergyOverdrawMaintenance 0
scalar OsgEarthNet.uav[29] utilizationCountMissions 19
scalar OsgEarthNet.uav[29] utilizationCountManeuversMission 205
scalar OsgEarthNet.uav[29] utilizationCountManeuversMaintenance 38
scalar OsgEarthNet.uav[29] utilizationCountChargeState 19
scalar OsgEarthNet.uav[29] utilizationCountOverdrawnAfterMission 0
scalar OsgEarthNet.uav[29] utilizationCountIdleState 20
scalar OsgEarthNet.uav[29] utilizationFail 0
scalar OsgEarthNet.uav[29] simulationTime 259200
scalar OsgEarthNet.uav[30] utilizationSecMission 18946.807470297
scalar OsgEarthNet.uav[30] utilizationSecMaintenance 6490.763997797
scalar OsgEarthNet.uav[30] utilizationSecCharge 93126.855341767
scalar OsgEarthNet.uav[30] utilizationSecIdle 140635.57219014
scalar OsgEarthNet.uav[30] utilizationEnergyMission 88058.917121887
scalar OsgEarthNet.uav[30] utilizationEnergyMaintenance 31457.405338287
scalar OsgEarthNet.uav[30] utilizationEnergyCharge 117090.14453125
scalar OsgEarthNet.uav[30] utilizationEnergyOverdrawMission 0
scalar OsgEarthNet.uav[30] utilizationEnergyOverdrawMaintenance 0
scalar OsgEarthNet.uav[30] utilizationCountMissions 26
scalar OsgEarthNet.uav[30] utilizationCountManeuversMission 290
scalar OsgEarthNet.uav[30] utilizationCountManeuversMaintenance 52
scalar OsgEarthNet.uav[30] utilizationCountChargeState 26
scalar OsgEarthNet.uav[30] utilizationCountOverdrawnAfterMission 0
scalar OsgEarthNet.uav[30] utilizationCountIdleState 22
scalar OsgEarthNet.uav[30] utilizationFail 0
scalar OsgEarthNet.uav[30] simulationTime 259200
scalar OsgEarthNet.uav[31] utilizationSecMission 5436.7002392421
scalar OsgEarthNet.uav[31] utilizationSecMaintenance 2469.5740829693
scalar OsgEarthNet.uav[31] utilizationSecCharge 29890
scalar OsgEarthNet.uav[31] utilizationSecIdle 221403.72467779
scalar OsgEarthNet.uav[31] utilizationEnergyMission 25818.731079102
scalar OsgEarthNet.uav[31] utilizationEnergyMaintenance 12110.146465302
scalar OsgEarthNet.uav[31] utilizationEnergyCharge 37928.875976562
scalar OsgEarthNet.uav[31] utilizationEnergyOverdrawMission 0
scalar OsgEarthNet.uav[31] utilizationEnergyOverdrawMaintenance 0
scalar OsgEarthNet.uav[31] utilizationCountMissions 8
scalar OsgEarthNet.uav[31] utilizationCountManeuversMission 92
scalar OsgEarthNet.uav[31] utilizationCountManeuversMaintenance 16
scalar OsgEarthNet.uav[31] utilizationCountChargeState 8
scalar OsgEarthNet.uav[31] utilizationCountOverdrawnAfterMission 0
scalar OsgEarthNet.uav[31] utilizationCountIdleState 7
scalar OsgEarthNet.uav[31] utilizationFail 0
scalar OsgEarthNet.uav[31] simulationTime 259200
scalar OsgEarthNet.uav[32] utilizationSecMission 12810.712509196
scalar OsgEarthNet.uav[32] utilizationSecMaintenance 4788.6322137441
scalar OsgEarthNet.uav[32] utilizationSecCharge 61288.875372876
scalar OsgEarthNet.uav[32] utilizationSecIdle 180311.77890418
scalar OsgEarthNet.uav[32] utilizationEnergyMission 59821.408035278
scalar OsgEarthNet.uav[32] utilizationEnergyMaintenance 22329.900493622
scalar OsgEarthNet.uav[32] utilizationEnergyCharge 77276.778320312
scalar OsgEarthNet.uav[32] utilizationEnergyOverdrawMission 0
scalar OsgEarthNet.uav[32] utilizationEnergyOverdrawMaintenance 0
scalar OsgEarthNet.uav[32] utilizationCountMissions 17
scalar OsgEarthNet.uav[32] utilizationCountManeuversMission 226
scalar OsgEarthNet.uav[32] utilizationCountManeuversMaintenance 34
scalar OsgEarthNet.uav[32] utilizationCountChargeState 17
scalar OsgEarthNet.uav[32] utilizationCountOverdrawnAfterMission 0
scalar OsgEarthNet.uav[32] utilizationCountIdleState 17
scalar OsgEarthNet.uav[32] utilizationFail 0
scalar OsgEarthNet.uav[32] simulationTime 259200
scalar OsgEarthNet.uav[33] utilizationSecMission 27402.34113498
scalar OsgEarthNet.uav[33] utilizationSecMaintenance 8596.422836451
scalar OsgEarthNet.uav[33] utilizationSecCharge 133019.09521802
scalar OsgEarthNet.uav[33] utilizationSecIdle 90182.139810551
scalar OsgEarthNet.uav[33] utilizationEnergyMission 126017.33130646
scalar OsgEarthNet.uav[33] utilizationEnergyMaintenance 41228.656959534
scalar OsgEarthNet.uav[33] utilizationEnergyCharge 167116.57519531
scalar OsgEarthNet.uav[33] utilizationEnergyOverdrawMission 0
scalar OsgEarthNet.uav[33] utilizationEnergyOverdrawMaintenance 0
scalar OsgEarthNet.uav[33] utilizationCountMissions 36
scalar OsgEarthNet.uav[33] utilizationCountManeuversMission 419
scalar OsgEarthNet.uav[33] utilizationCountManeuversMaintenance 72
scalar OsgEarthNet.uav[33] utilizationCountChargeState 36
scalar OsgEarthNet.uav[33] utilizationCountOverdrawnAfterMission 0
scalar OsgEarthNet.uav[33] utilizationCountIdleState 32
scalar OsgEarthNet.uav[33] utilizationFail 0
scalar OsgEarthNet.uav[33] simulationTime 259200
scalar OsgEarthNet.uav[34] utilizationSecMission 13410.820405759
scalar OsgEarthNet.uav[34] utilizationSecMaintenance 5828.8903123091
scalar OsgEarthNet.uav[34] utilizationSecCharge 71790
scalar OsgEarthNet.uav[34] utilizationSecIdle 168170.28828193
scalar OsgEarthNet.uav[34] utilizationEnergyMission 62030.864776611
scalar OsgEarthNet.uav[34] utilizationEnergyMaintenance 27948.243015289
scalar OsgEarthNet.uav[34] utilizationEnergyCharge 89979.109375
scalar OsgEarthNet.uav[34] utilizationEnergyOverdrawMission 0
scalar OsgEarthNet.uav[34] utilizationEnergyOverdrawMaintenance 0
scalar OsgEarthNet.uav[34] utilizationCountMissions 19
scalar OsgEarthNet.uav[34] utilizationCountManeuversMission 209
scalar OsgEarthNet.uav[34] utilizationCountManeuversMaintenance 38
scalar OsgEarthNet.uav[34] utilizationCountChargeState 19
scalar OsgEarthNet.uav[34] utilizationCountOverdrawnAfterMission 0
scalar OsgEarthNet.uav[34] utilizationCountIdleState 20
scalar OsgEarthNet.uav[34] utilizationFail 0
scalar OsgEarthNet.uav[34] simulationTime 259200
scalar OsgEarthNet.uav[35] utilizationSecMission 19967.785290562
scalar OsgEarthNet.uav[35] utilizationSecMaintenance 5865.4553805643
scalar OsgEarthNet.uav[35] utilizationSecCharge 92078.88278343
scalar OsgEarthNet.uav[35] utilizationSecIdle 141287.87554544
scalar OsgEarthNet.uav[35] utilizationEnergyMission 94263.31595993
scalar OsgEarthNet.uav[35] utilizationEnergyMaintenance 26528.476970673
scalar OsgEarthNet.uav[35] utilizationEnergyCharge 116109.78125
scalar OsgEarthNet.uav[35] utilizationEnergyOverdrawMission 0
scalar OsgEarthNet.uav[35] utilizationEnergyOverdrawMaintenance 0
scalar OsgEarthNet.uav[35] utilizationCountMissions 25
scalar OsgEarthNet.uav[35] utilizationCountManeuversMission 338
scalar OsgEarthNet.uav[35] utilizationCountManeuversMaintenance 50
scalar OsgEarthNet.uav[35] utilizationCountChargeState 25
scalar OsgEarthNet.uav[35] utilizationCountOverdrawnAfterMission 0
scalar OsgEarthNet.uav[35] utilizationCountIdleState 25
scalar OsgEarthNet.uav[35] utilizationFail 0
scalar OsgEarthNet.uav[35] simulationTime 259200
scalar OsgEarthNet.uav[36] utilizationSecMission 10567.023405444
scalar OsgEarthNet.uav[36] utilizationSecMaintenance 4504.9910210767
scalar OsgEarthNet.uav[36] utilizationSecCharge 55138.04773114
scalar OsgEarthNet.uav[36] utilizationSecIdle 188989.93684234
scalar OsgEarthNet.uav[36] utilizationEnergyMission 48649.53768158
scalar OsgEarthNet.uav[36] utilizationEnergyMaintenance 21568.52456665
scalar OsgEarthNet.uav[36] utilizationEnergyCharge 70151.072753906
scalar OsgEarthNet.uav[36] utilizationEnergyOverdrawMission 0
scalar OsgEarthNet.uav[36] utilizationEnergyOverdrawMaintenance 0
scalar OsgEarthNet.uav[36] utilizationCountMissions 15
scalar OsgEarthNet.uav[36] utilizationCountManeuversMission 170
scalar OsgEarthNet.uav[36] utilizationCountManeuversMaintenance 30
scalar OsgEarthNet.uav[36] utilizationCountChargeState 15
scalar OsgEarthNet.uav[36] utilizationCountOverdrawnAfterMission 0
scalar OsgEarthNet.uav[36] utilizationCountIdleState 13
scalar OsgEarthNet.uav[36] utilizationFail 0
scalar OsgEarthNet.uav[36] simulationTime 259200
scalar OsgEarthNet.uav[37] utilizationSecMission 2657.9675876519
scalar OsgEarthNet.uav[37] utilizationSecMaintenance 1462.6041551626
scalar OsgEarthNet.uav[37] utilizationSecCharge 15110
scalar OsgEarthNet.uav[37] utilizationSecIdle 239969.42725719
scalar OsgEarthNet.uav[37] utilizationEnergyMission 12351.195480347
scalar OsgEarthNet.uav[37] utilizationEnergyMaintenance 6621.4431724548
scalar OsgEarthNet.uav[37] utilizationEnergyCharge 18972.6328125
scalar OsgEarthNet.uav[37] utilizationEnergyOverdrawMission 0
scalar OsgEarthNet.uav[37] utilizationEnergyOverdrawMaintenance 0
scalar OsgEarthNet.uav[37] utilizationCountMissions 4
scalar OsgEarthNet.uav[37] utilizationCountManeuversMission 45
scalar OsgEarthNet.uav[37] utilizationCountManeuversMaintenance 8
scalar OsgEarthNet.uav[37] utilizationCountChargeState 4
scalar OsgEarthNet.uav[37] utilizationCountOverdrawnAfterMission 0
scalar OsgEarthNet.uav[37] utilizationCountIdleState 5
scalar OsgEarthNet.uav[37] utilizationFail 0
scalar OsgEarthNet.uav[37] simulationTime 259200
scalar OsgEarthNet.uav[38] utilizationSecMission 24212.78779478
scalar OsgEarthNet.uav[38] utilizationSecMaintenance 7912.6829002147
scalar OsgEarthNet.uav[38] utilizationSecCharge 116650
scalar OsgEarthNet.uav[38] utilizationSecIdle 110424.52830501
scalar OsgEarthNet.uav[38] utilizationEnergyMission 109758.37539291
scalar OsgEarthNet.uav[38] utilizationEnergyMaintenance 36049.820388794
scalar OsgEarthNet.uav[38] utilizationEnergyCharge 146261.74462891
scalar OsgEarthNet.uav[38] utilizationEnergyOverdrawMission 0
scalar OsgEarthNet.uav[38] utilizationEnergyOverdrawMaintenance 0
scalar OsgEarthNet.uav[38] utilizationCountMissions 31
scalar OsgEarthNet.uav[38] utilizationCountManeuversMission 416
scalar OsgEarthNet.uav[38] utilizationCountManeuversMaintenance 62
scalar OsgEarthNet.uav[38] utilizationCountChargeState 31
scalar OsgEarthNet.uav[38] utilizationCountOverdrawnAfterMission 0
scalar OsgEarthNet.uav[38] utilizationCountIdleState 32
scalar OsgEarthNet.uav[38] utilizationFail 0
scalar OsgEarthNet.uav[38] simulationTime 259200
scalar OsgEarthNet.uav[39] utilizationSecMission 24194.118931141
scalar OsgEarthNet.uav[39] utilizationSecMaintenance 7741.1975802782
scalar OsgEarthNet.uav[39] utilizationSecCharge 116133.49334809
scalar OsgEarthNet.uav[39] utilizationSecIdle 111131.18914049
scalar OsgEarthNet.uav[39] utilizationEnergyMission 111251.1500473
scalar OsgEarthNet.uav[39] utilizationEnergyMaintenance 37725.196392059
scalar OsgEarthNet.uav[39] utilizationEnergyCharge 147374.59521484
scalar OsgEarthNet.uav[39] utilizationEnergyOverdrawMission 0
scalar OsgEarthNet.uav[39] utilizationEnergyOverdrawMaintenance 0
scalar OsgEarthNet.uav[39] utilizationCountMissions 32
scalar OsgEarthNet.uav[39] utilizationCountManeuversMission 370
scalar OsgEarthNet.uav[39] utilizationCountManeuversMaintenance 64
scalar OsgEarthNet.uav[39] utilizationCountChargeState 32
scalar OsgEarthNet.uav[39] utilizationCountOverdrawnAfterMission 0
scalar OsgEarthNet.uav[39] utilizationCountIdleState 26
scalar OsgEarthNet.uav[39] utilizationFail 0
scalar OsgEarthNet.uav[39] simulationTime 259200
scalar OsgEarthNet.uav[40] utilizationSecMission 10968.897538907
scalar OsgEarthNet.uav[40] utilizationSecMaintenance 3792.5471683017
scalar OsgEarthNet.uav[40] utilizationSecCharge 55880
scalar OsgEarthNet.uav[40] utilizationSecIdle 188558.55429279
scalar OsgEarthNet.uav[40] utilizationEnergyMission 51159.871185303
scalar OsgEarthNet.uav[40] utilizationEnergyMaintenance 18797.340900421
scalar OsgEarthNet.uav[40] utilizationEnergyCharge 69951.037597656
scalar OsgEarthNet.uav[40] utilizationEnergyOverdrawMission 0
scalar OsgEarthNet.uav[40] utilizationEnergyOverdrawMaintenance 0
scalar OsgEarthNet.uav[40] utilizationCountMissions 15
scalar OsgEarthNet.uav[40] utilizationCountManeuversMission 163
scalar OsgEarthNet.uav[40] utilizationCountManeuversMaintenance 29
scalar OsgEarthNet.uav[40] utilizationCountChargeState 15
scalar OsgEarthNet.uav[40] utilizationCountOverdrawnAfterMission 0
scalar OsgEarthNet.uav[40] utilizationCountIdleState 15
scalar OsgEarthNet.uav[40] utilizationFail 0
scalar OsgEarthNet.uav[40] simulationTime 259200
scalar OsgEarthNet.uav[41] utilizationSecMission 655.55330183502
scalar OsgEarthNet.uav[41] utilizationSecMaintenance 334.5505930207
scalar OsgEarthNet.uav[41] utilizationSecCharge 3900
scalar OsgEarthNet.uav[41] utilizationSecIdle 254309.89510514
scalar OsgEarthNet.uav[41] utilizationEnergyMission 3094.061050415
scalar OsgEarthNet.uav[41] utilizationEnergyMaintenance 1824.3701896667
scalar OsgEarthNet.uav[41] utilizationEnergyCharge 4918.4340820312
scalar OsgEarthNet.uav[41] utilizationEnergyOverdrawMission 0
scalar OsgEarthNet.uav[41] utilizationEnergyOverdrawMaintenance 0
scalar OsgEarthNet.uav[41] utilizationCountMissions 1
scalar OsgEarthNet.uav[41] utilizationCountManeuversMission 10
scalar OsgEarthNet.uav[41] utilizationCountManeuversMaintenance 2
scalar OsgEarthNet.uav[41] utilizationCountChargeState 1
scalar OsgEarthNet.uav[41] utilizationCountOverdrawnAfterMission 0
scalar OsgEarthNet.uav[41] utilizationCountIdleState 2
scalar OsgEarthNet.uav[41] utilizationFail 0
scalar OsgEarthNet.uav[41] simulationTime 259200
scalar OsgEarthNet.uav[42] utilizationSecMission 23915.004906197
scalar OsgEarthNet.uav[42] utilizationSecMaintenance 7943.7837009337
scalar OsgEarthNet.uav[42] utilizationSecCharge 113994.50503033
scalar OsgEarthNet.uav[42] utilizationSecIdle 113346.70536254
scalar OsgEarthNet.uav[42] utilizationEnergyMission 110657.32653809
scalar OsgEarthNet.uav[42] utilizationEnergyMaintenance 36184.817325592
scalar OsgEarthNet.uav[42] utilizationEnergyCharge 143373.68713379
scalar OsgEarthNet.uav[42] utilizationEnergyOverdrawMission 0
scalar OsgEarthNet.uav[42] utilizationEnergyOverdrawMaintenance 0
scalar OsgEarthNet.uav[42] utilizationCountMissions 31
scalar OsgEarthNet.uav[42] utilizationCountManeuversMission 412
scalar OsgEarthNet.uav[42] utilizationCountManeuversMaintenance 62
scalar OsgEarthNet.uav[42] utilizationCountChargeState 31
scalar OsgEarthNet.uav[42] utilizationCountOverdrawnAfterMission 0
scalar OsgEarthNet.uav[42] utilizationCountIdleState 31
scalar OsgEarthNet.uav[42] utilizationFail 0
scalar OsgEarthNet.uav[42] simulationTime 259200
scalar OsgEarthNet.uav[43] utilizationSecMission 23779.23647637
scalar OsgEarthNet.uav[43] utilizationSecMaintenance 7659.5301214012
scalar OsgEarthNet.uav[43] utilizationSecCharge 115390
scalar OsgEarthNet.uav[43] utilizationSecIdle 112371.23240223
scalar OsgEarthNet.uav[43] utilizationEnergyMission 109233.16991425
scalar OsgEarthNet.uav[43] utilizationEnergyMaintenance 36822.485778038
scalar OsgEarthNet.uav[43] utilizationEnergyCharge 145788.68164062
scalar OsgEarthNet.uav[43] utilizationEnergyOverdrawMission 0
scalar OsgEarthNet.uav[43] utilizationEnergyOverdrawMaintenance 0
scalar OsgEarthNet.uav[43] utilizationCountMissions 31
scalar OsgEarthNet.uav[43] utilizationCountManeuversMission 365
scalar OsgEarthNet.uav[43] utilizationCountManeuversMaintenance 63
scalar OsgEarthNet.uav[43] utilizationCountChargeState 31
scalar OsgEarthNet.uav[43] utilizationCountOverdrawnAfterMission 0
scalar OsgEarthNet.uav[43] utilizationCountIdleState 28
scalar OsgEarthNet.uav[43] utilizationFail 0
scalar OsgEarthNet.uav[43] simulationTime 259200
scalar OsgEarthNet.uav[44] utilizationSecMission 3340.9154191555
scalar OsgEarthNet.uav[44] utilizationSecMaintenance 1745.4038069482
scalar OsgEarthNet.uav[44] utilizationSecCharge 19050
scalar OsgEarthNet.uav[44] utilizationSecIdle 235063.6797739
scalar OsgEarthNet.uav[44] utilizationEnergyMission 15316.836372375
scalar OsgEarthNet.uav[44] utilizationEnergyMaintenance 8518.2980117798
scalar OsgEarthNet.uav[44] utilizationEnergyCharge 23835.133300781
scalar OsgEarthNet.uav[44] utilizationEnergyOverdrawMission 0
scalar OsgEarthNet.uav[44] utilizationEnergyOverdrawMaintenance 0
scalar OsgEarthNet.uav[44] utilizationCountMissions 5
scalar OsgEarthNet.uav[44] utilizationCountManeuversMission 57
scalar OsgEarthNet.uav[44] utilizationCountManeuversMaintenance 10
scalar OsgEarthNet.uav[44] utilizationCountChargeState 5
scalar OsgEarthNet.uav[44] utilizationCountOverdrawnAfterMission 0
scalar OsgEarthNet.uav[44] utilizationCountIdleState 6
scalar OsgEarthNet.uav[44] utilizationFail 0
scalar OsgEarthNet.uav[44] simulationTime 259200
scalar OsgEarthNet.uav[45] utilizationSecMission 20279.398013824
scalar OsgEarthNet.uav[45] utilizationSecMaintenance 6671.3793068501
scalar OsgEarthNet.uav[45] utilizationSecCharge 98700
scalar OsgEarthNet.uav[45] utilizationSecIdle 133549.22167933
scalar OsgEarthNet.uav[45] utilizationEnergyMission 92733.235076904
scalar OsgEarthNet.uav[45] utilizationEnergyMaintenance 30390.578620911
scalar OsgEarthNet.uav[45] utilizationEnergyCharge 124180.703125
scalar OsgEarthNet.uav[45] utilizationEnergyOverdrawMission 0
scalar OsgEarthNet.uav[45] utilizationEnergyOverdrawMaintenance 0
scalar OsgEarthNet.uav[45] utilizationCountMissions 26
scalar OsgEarthNet.uav[45] utilizationCountManeuversMission 345
scalar OsgEarthNet.uav[45] utilizationCountManeuversMaintenance 52
scalar OsgEarthNet.uav[45] utilizationCountChargeState 26
scalar OsgEarthNet.uav[45] utilizationCountOverdrawnAfterMission 0
scalar OsgEarthNet.uav[45] utilizationCountIdleState 27
scalar OsgEarthNet.uav[45] utilizationFail 0
scalar OsgEarthNet.uav[45] simulationTime 259200
scalar OsgEarthNet.uav[46] utilizationSecMission 21033.174767863
scalar OsgEarthNet.uav[46] utilizationSecMaintenance 6932.7243752685
scalar OsgEarthNet.uav[46] utilizationSecCharge 104330
scalar OsgEarthNet.uav[46] utilizationSecIdle 126904.09985687
scalar OsgEarthNet.uav[46] utilizationEnergyMission 97461.309747233
scalar OsgEarthNet.uav[46] utilizationEnergyMaintenance 32949.972549438
scalar OsgEarthNet.uav[46] utilizationEnergyCharge 130408.91162109
scalar OsgEarthNet.uav[46] utilizationEnergyOverdrawMission 0
scalar OsgEarthNet.uav[46] utilizationEnergyOverdrawMaintenance 0
scalar OsgEarthNet.uav[46] utilizationCountMissions 28
scalar OsgEarthNet.uav[46] utilizationCountManeuversMission 318
scalar OsgEarthNet.uav[46] utilizationCountManeuversMaintenance 55
scalar OsgEarthNet.uav[46] utilizationCountChargeState 28
scalar OsgEarthNet.uav[46] utilizationCountOverdrawnAfterMission 0
scalar OsgEarthNet.uav[46] utilizationCountIdleState 29
scalar OsgEarthNet.uav[46] utilizationFail 0
scalar OsgEarthNet.uav[46] simulationTime 259200
scalar OsgEarthNet.uav[47] utilizationSecMission 2709.8666857033
scalar OsgEarthNet.uav[47] utilizationSecMaintenance 1290.4596673919
scalar OsgEarthNet.uav[47] utilizationSecCharge 15230
scalar OsgEarthNet.uav[47] utilizationSecIdle 239969.6726469
scalar OsgEarthNet.uav[47] utilizationEnergyMission 12656.875656128
scalar OsgEarthNet.uav[47] utilizationEnergyMaintenance 6483.4960174561
scalar OsgEarthNet.uav[47] utilizationEnergyCharge 19140.3671875
scalar OsgEarthNet.uav[47] utilizationEnergyOverdrawMission 0
scalar OsgEarthNet.uav[47] utilizationEnergyOverdrawMaintenance 0
scalar OsgEarthNet.uav[47] utilizationCountMissions 4
scalar OsgEarthNet.uav[47] utilizationCountManeuversMission 42
scalar OsgEarthNet.uav[47] utilizationCountManeuversMaintenance 8
scalar OsgEarthNet.uav[47] utilizationCountChargeState 4
scalar OsgEarthNet.uav[47] utilizationCountOverdrawnAfterMission 0
scalar OsgEarthNet.uav[47] utilizationCountIdleState 5
scalar OsgEarthNet.uav[47] utilizationFail 0
scalar OsgEarthNet.uav[47] simulationTime 259200
scalar OsgEarthNet.uav[48] utilizationSecMission 27401.11434353
scalar OsgEarthNet.uav[48] utilizationSecMaintenance 9753.7599847405
scalar OsgEarthNet.uav[48] utilizationSecCharge 135123.12467173
scalar OsgEarthNet.uav[48] utilizationSecIdle 86922
scalar OsgEarthNet.uav[48] utilizationEnergyMission 126321.81470778
scalar OsgEarthNet.uav[48] utilizationEnergyMaintenance 44442.117950439
scalar OsgEarthNet.uav[48] utilizationEnergyCharge 170513.08984375
scalar OsgEarthNet.uav[48] utilizationEnergyOverdrawMission 0
scalar OsgEarthNet.uav[48] utilizationEnergyOverdrawMaintenance 0
scalar OsgEarthNet.uav[48] utilizationCountMissions 36
scalar OsgEarthNet.uav[48] utilizationCountManeuversMission 482
scalar OsgEarthNet.uav[48] utilizationCountManeuversMaintenance 71
scalar OsgEarthNet.uav[48] utilizationCountChargeState 36
scalar OsgEarthNet.uav[48] utilizationCountOverdrawnAfterMission 0
scalar OsgEarthNet.uav[48] utilizationCountIdleState 36
scalar OsgEarthNet.uav[48] utilizationFail 0
scalar OsgEarthNet.uav[48] simulationTime 259200
scalar OsgEarthNet.uav[49] utilizationSecMission 11797.331216119
scalar OsgEarthNet.uav[49] utilizationSecMaintenance 4050.6912391869
scalar OsgEarthNet.uav[49] utilizationSecCharge 59100
scalar OsgEarthNet.uav[49] utilizationSecIdle 184251.97654469
scalar OsgEarthNet.uav[49] utilizationEnergyMission 54448.112319946
scalar OsgEarthNet.uav[49] utilizationEnergyMaintenance 19066.144207001
scalar OsgEarthNet.uav[49] utilizationEnergyCharge 73485.15234375
scalar OsgEarthNet.uav[49] utilizationEnergyOverdrawMission 0
scalar OsgEarthNet.uav[49] utilizationEnergyOverdrawMaintenance 0
scalar OsgEarthNet.uav[49] utilizationCountMissions 16
scalar OsgEarthNet.uav[49] utilizationCountManeuversMission 180
scalar OsgEarthNet.uav[49] utilizationCountManeuversMaintenance 32
scalar OsgEarthNet.uav[49] utilizationCountChargeState 16
scalar OsgEarthNet.uav[49] utilizationCountOverdrawnAfterMission 0
scalar OsgEarthNet.uav[49] utilizationCountIdleState 17
scalar OsgEarthNet.uav[49] utilizationFail 0
scalar OsgEarthNet.uav[49] simulationTime 259200
scalar OsgEarthNet.uav[50] utilizationSecMission 13626.012895258
scalar OsgEarthNet.uav[50] utilizationSecMaintenance 5188.2775939806
scalar OsgEarthNet.uav[50] utilizationSecCharge 70770
scalar OsgEarthNet.uav[50] utilizationSecIdle 169615.70851076
scalar OsgEarthNet.uav[50] utilizationEnergyMission 63331.409973145
scalar OsgEarthNet.uav[50] utilizationEnergyMaintenance 25128.440067291
scalar OsgEarthNet.uav[50] utilizationEnergyCharge 88459.848144531
scalar OsgEarthNet.uav[50] utilizationEnergyOverdrawMission 0
scalar OsgEarthNet.uav[50] utilizationEnergyOverdrawMaintenance 0
scalar OsgEarthNet.uav[50] utilizationCountMissions 19
scalar OsgEarthNet.uav[50] utilizationCountManeuversMission 212
scalar OsgEarthNet.uav[50] utilizationCountManeuversMaintenance 38
scalar OsgEarthNet.uav[50] utilizationCountChargeState 19
scalar OsgEarthNet.uav[50] utilizationCountOverdrawnAfterMission 0
scalar OsgEarthNet.uav[50] utilizationCountIdleState 19
scalar OsgEarthNet.uav[50] utilizationFail 0
scalar OsgEarthNet.uav[50] simulationTime 259200
scalar OsgEarthNet.uav[51] utilizationSecMission 1855.9277082428
scalar OsgEarthNet.uav[51] utilizationSecMaintenance 1178.1270790326
scalar OsgEarthNet.uav[51] utilizationSecCharge 11350
scalar OsgEarthNet.uav[51] utilizationSecIdle 244815.94421272
scalar OsgEarthNet.uav[51] utilizationEnergyMission 8689.1495056152
scalar OsgEarthNet.uav[51] utilizationEnergyMaintenance 5502.3980255127
scalar OsgEarthNet.uav[51] utilizationEnergyCharge 14191.547851562
scalar OsgEarthNet.uav[51] utilizationEnergyOverdrawMission 0
scalar OsgEarthNet.uav[51] utilizationEnergyOverdrawMaintenance 0
scalar OsgEarthNet.uav[51] utilizationCountMissions 3
scalar OsgEarthNet.uav[51] utilizationCountManeuversMission 31
scalar OsgEarthNet.uav[51] utilizationCountManeuversMaintenance 6
scalar OsgEarthNet.uav[51] utilizationCountChargeState 3
scalar OsgEarthNet.uav[51] utilizationCountOverdrawnAfterMission 0
scalar OsgEarthNet.uav[51] utilizationCountIdleState 4
scalar OsgEarthNet.uav[51] utilizationFail 0
scalar OsgEarthNet.uav[51] simulationTime 259200
scalar OsgEarthNet.uav[52] utilizationSecMission 21808.525442021
scalar OsgEarthNet.uav[52] utilizationSecMaintenance 7551.6892641464
scalar OsgEarthNet.uav[52] utilizationSecCharge 106340
scalar OsgEarthNet.uav[52] utilizationSecIdle 123499.78429383
scalar OsgEarthNet.uav[52] utilizationEnergyMission 101420.03403118
scalar OsgEarthNet.uav[52] utilizationEnergyMaintenance 34759.203929901
scalar OsgEarthNet.uav[52] utilizationEnergyCharge 133929.12304688
scalar OsgEarthNet.uav[52] utilizationEnergyOverdrawMission 0
scalar OsgEarthNet.uav[52] utilizationEnergyOverdrawMaintenance 0
scalar OsgEarthNet.uav[52] utilizationCountMissions 28
scalar OsgEarthNet.uav[52] utilizationCountManeuversMission 381
scalar OsgEarthNet.uav[52] utilizationCountManeuversMaintenance 57
scalar OsgEarthNet.uav[52] utilizationCountChargeState 28
scalar OsgEarthNet.uav[52] utilizationCountOverdrawnAfterMission 0
scalar OsgEarthNet.uav[52] utilizationCountIdleState 29
scalar OsgEarthNet.uav[52] utilizationFail 0
scalar OsgEarthNet.uav[52] simulationTime 259200
scalar OsgEarthNet.uav[53] utilizationSecMission 12587.679905538
scalar OsgEarthNet.uav[53] utilizationSecMaintenance 4658.6322577186
scalar OsgEarthNet.uav[53] utilizationSecCharge 61745.610044173
scalar OsgEarthNet.uav[53] utilizationSecIdle 180208.07679257
scalar OsgEarthNet.uav[53] utilizationEnergyMission 57597.893989563
scalar OsgEarthNet.uav[53] utilizationEnergyMaintenance 22627.968650818
scalar OsgEarthNet.uav[53] utilizationEnergyCharge 77920.407226562
scalar OsgEarthNet.uav[53] utilizationEnergyOverdrawMission 0
scalar OsgEarthNet.uav[53] utilizationEnergyOverdrawMaintenance 0
scalar OsgEarthNet.uav[53] utilizationCountMissions 17
scalar OsgEarthNet.uav[53] utilizationCountManeuversMission 193
scalar OsgEarthNet.uav[53] utilizationCountManeuversMaintenance 34
scalar OsgEarthNet.uav[53] utilizationCountChargeState 17
scalar OsgEarthNet.uav[53] utilizationCountOverdrawnAfterMission 0
scalar OsgEarthNet.uav[53] utilizationCountIdleState 17
scalar OsgEarthNet.uav[53] utilizationFail 0
scalar OsgEarthNet.uav[53] simulationTime 259200
scalar OsgEarthNet.uav[54] utilizationSecMission 14006.242367528
scalar OsgEarthNet.uav[54] utilizationSecMaintenance 5614.7901795211
scalar OsgEarthNet.uav[54] utilizationSecCharge 73550
scalar OsgEarthNet.uav[54] utilizationSecIdle 166028.96645295
scalar OsgEarthNet.uav[54] utilizationEnergyMission 64291.757270813
scalar OsgEarthNet.uav[54] utilizationEnergyMaintenance 27182.469844818
scalar OsgEarthNet.uav[54] utilizationEnergyCharge 91474.229980469
scalar OsgEarthNet.uav[54] utilizationEnergyOverdrawMission 0
scalar OsgEarthNet.uav[54] utilizationEnergyOverdrawMaintenance 0
scalar OsgEarthNet.uav[54] utilizationCountMissions 20
scalar OsgEarthNet.uav[54] utilizationCountManeuversMission 217
scalar OsgEarthNet.uav[54] utilizationCountManeuversMaintenance 40
scalar OsgEarthNet.uav[54] utilizationCountChargeState 20
scalar OsgEarthNet.uav[54] utilizationCountOverdrawnAfterMission 0
scalar OsgEarthNet.uav[54] utilizationCountIdleState 21
scalar OsgEarthNet.uav[54] utilizationFail 0
scalar OsgEarthNet.uav[54] simulationTime 259200
scalar OsgEarthNet.uav[55] utilizationSecMission 28847.054186801
scalar OsgEarthNet.uav[55] utilizationSecMaintenance 8473.3395609748
scalar OsgEarthNet.uav[55] utilizationSecCharge 136220
scalar OsgEarthNet.uav[55] utilizationSecIdle 85659.605252224
scalar OsgEarthNet.uav[55] utilizationEnergyMission 132537.05441164
scalar OsgEarthNet.uav[55] utilizationEnergyMaintenance 38556.694839478
scalar OsgEarthNet.uav[55] utilizationEnergyCharge 171241.69580078
scalar OsgEarthNet.uav[55] utilizationEnergyOverdrawMission 0
scalar OsgEarthNet.uav[55] utilizationEnergyOverdrawMaintenance 0
scalar OsgEarthNet.uav[55] utilizationCountMissions 36
scalar OsgEarthNet.uav[55] utilizationCountManeuversMission 483
scalar OsgEarthNet.uav[55] utilizationCountManeuversMaintenance 71
scalar OsgEarthNet.uav[55] utilizationCountChargeState 36
scalar OsgEarthNet.uav[55] utilizationCountOverdrawnAfterMission 0
scalar OsgEarthNet.uav[55] utilizationCountIdleState 37
scalar OsgEarthNet.uav[55] utilizationFail 0
scalar OsgEarthNet.uav[55] simulationTime 259200
scalar OsgEarthNet.uav[56] utilizationSecMission 25376.356978767
scalar OsgEarthNet.uav[56] utilizationSecMaintenance 7606.8359365367
scalar OsgEarthNet.uav[56] utilizationSecCharge 120590
scalar OsgEarthNet.uav[56] utilizationSecIdle 105626.8060847
scalar OsgEarthNet.uav[56] utilizationEnergyMission 117804.51216027
scalar OsgEarthNet.uav[56] utilizationEnergyMaintenance 36560.561027527
scalar OsgEarthNet.uav[56] utilizationEnergyCharge 150626.84423828
scalar OsgEarthNet.uav[56] utilizationEnergyOverdrawMission 0
scalar OsgEarthNet.uav[56] utilizationEnergyOverdrawMaintenance 0
scalar OsgEarthNet.uav[56] utilizationCountMissions 33
scalar OsgEarthNet.uav[56] utilizationCountManeuversMission 384
scalar OsgEarthNet.uav[56] utilizationCountManeuversMaintenance 67
scalar OsgEarthNet.uav[56] utilizationCountChargeState 33
scalar OsgEarthNet.uav[56] utilizationCountOverdrawnAfterMission 0
scalar OsgEarthNet.uav[56] utilizationCountIdleState 29
scalar OsgEarthNet.uav[56] utilizationFail 0
scalar OsgEarthNet.uav[56] simulationTime 259200
scalar OsgEarthNet.uav[57] utilizationSecMission 3453.0734659014
scalar OsgEarthNet.uav[57] utilizationSecMaintenance 1586.6515321246
scalar OsgEarthNet.uav[57] utilizationSecCharge 18850
scalar OsgEarthNet.uav[57] utilizationSecIdle 235310.27400197
scalar OsgEarthNet.uav[57] utilizationEnergyMission 15863.020477295
scalar OsgEarthNet.uav[57] utilizationEnergyMaintenance 7788.8371353149
scalar OsgEarthNet.uav[57] utilizationEnergyCharge 23651.866210938
scalar OsgEarthNet.uav[57] utilizationEnergyOverdrawMission 0
scalar OsgEarthNet.uav[57] utilizationEnergyOverdrawMaintenance 0
scalar OsgEarthNet.uav[57] utilizationCountMissions 5
scalar OsgEarthNet.uav[57] utilizationCountManeuversMission 54
scalar OsgEarthNet.uav[57] utilizationCountManeuversMaintenance 10
scalar OsgEarthNet.uav[57] utilizationCountChargeState 5
scalar OsgEarthNet.uav[57] utilizationCountOverdrawnAfterMission 0
scalar OsgEarthNet.uav[57] utilizationCountIdleState 6
scalar OsgEarthNet.uav[57] utilizationFail 0
scalar OsgEarthNet.uav[57] simulationTime 259200
scalar OsgEarthNet.uav[58] utilizationSecMission 11737.372364852
scalar OsgEarthNet.uav[58] utilizationSecMaintenance 5357.8571205029
scalar OsgEarthNet.uav[58] utilizationSecCharge 63850
scalar OsgEarthNet.uav[58] utilizationSecIdle 178254.76951464
scalar OsgEarthNet.uav[58] utilizationEnergyMission 54596.107719421
scalar OsgEarthNet.uav[58] utilizationEnergyMaintenance 25440.653453827
scalar OsgEarthNet.uav[58] utilizationEnergyCharge 80036.772949219
scalar OsgEarthNet.uav[58] utilizationEnergyOverdrawMission 0
scalar OsgEarthNet.uav[58] utilizationEnergyOverdrawMaintenance 0
scalar OsgEarthNet.uav[58] utilizationCountMissions 17
scalar OsgEarthNet.uav[58] utilizationCountManeuversMission 185
scalar OsgEarthNet.uav[58] utilizationCountManeuversMaintenance 34
scalar OsgEarthNet.uav[58] utilizationCountChargeState 17
scalar OsgEarthNet.uav[58] utilizationCountOverdrawnAfterMission 0
scalar OsgEarthNet.uav[58] utilizationCountIdleState 18
scalar OsgEarthNet.uav[58] utilizationFail 0
scalar OsgEarthNet.uav[58] simulationTime 259200
scalar OsgEarthNet.uav[59] utilizationSecMission 26579.528501159
scalar OsgEarthNet.uav[59] utilizationSecMaintenance 8579.2460619897
scalar OsgEarthNet.uav[59] utilizationSecCharge 128129.40914729
scalar OsgEarthNet.uav[59] utilizationSecIdle 95911.81528956
scalar OsgEarthNet.uav[59] utilizationEnergyMission 120673.13858795
scalar OsgEarthNet.uav[59] utilizationEnergyMaintenance 41804.350082397
scalar OsgEarthNet.uav[59] utilizationEnergyCharge 162240.54101562
scalar OsgEarthNet.uav[59] utilizationEnergyOverdrawMission 0
scalar OsgEarthNet.uav[59] utilizationEnergyOverdrawMaintenance 0
scalar OsgEarthNet.uav[59] utilizationCountMissions 35
scalar OsgEarthNet.uav[59] utilizationCountManeuversMission 406
scalar OsgEarthNet.uav[59] utilizationCountManeuversMaintenance 70
scalar OsgEarthNet.uav[59] utilizationCountChargeState 35
scalar OsgEarthNet.uav[59] utilizationCountOverdrawnAfterMission 0
scalar OsgEarthNet.uav[59] utilizationCountIdleState 30
scalar OsgEarthNet.uav[59] utilizationFail 0
scalar OsgEarthNet.uav[59] simulationTime 259200
scalar OsgEarthNet.uav[60] utilizationSecMission 17232.664498428
scalar OsgEarthNet.uav[60] utilizationSecMaintenance 5656.9822968952
scalar OsgEarthNet.uav[60] utilizationSecCharge 85820
scalar OsgEarthNet.uav[60] utilizationSecIdle 150490.35220468
scalar OsgEarthNet.uav[60] utilizationEnergyMission 79414.202941895
scalar OsgEarthNet.uav[60] utilizationEnergyMaintenance 27852.416706085
scalar OsgEarthNet.uav[60] utilizationEnergyCharge 107165.11865234
scalar OsgEarthNet.uav[60] utilizationEnergyOverdrawMission 0
scalar OsgEarthNet.uav[60] utilizationEnergyOverdrawMaintenance 0
scalar OsgEarthNet.uav[60] utilizationCountMissions 23
scalar OsgEarthNet.uav[60] utilizationCountManeuversMission 267
scalar OsgEarthNet.uav[60] utilizationCountManeuversMaintenance 46
scalar OsgEarthNet.uav[60] utilizationCountChargeState 23
scalar OsgEarthNet.uav[60] utilizationCountOverdrawnAfterMission 0
scalar OsgEarthNet.uav[60] utilizationCountIdleState 24
scalar OsgEarthNet.uav[60] utilizationFail 0
scalar OsgEarthNet.uav[60] simulationTime 259200
scalar OsgEarthNet.uav[61] utilizationSecMission 2570.3141092888
scalar OsgEarthNet.uav[61] utilizationSecMaintenance 1511.2226118175
scalar OsgEarthNet.uav[61] utilizationSecCharge 15290
scalar OsgEarthNet.uav[61] utilizationSecIdle 239828.46227889
scalar OsgEarthNet.uav[61] utilizationEnergyMission 12053.409118652
scalar OsgEarthNet.uav[61] utilizationEnergyMaintenance 7214.2786827087
scalar OsgEarthNet.uav[61] utilizationEnergyCharge 19267.691894531
scalar OsgEarthNet.uav[61] utilizationEnergyOverdrawMission 0
scalar OsgEarthNet.uav[61] utilizationEnergyOverdrawMaintenance 0
scalar OsgEarthNet.uav[61] utilizationCountMissions 4
scalar OsgEarthNet.uav[61] utilizationCountManeuversMission 43
scalar OsgEarthNet.uav[61] utilizationCountManeuversMaintenance 8
scalar OsgEarthNet.uav[61] utilizationCountChargeState 4
scalar OsgEarthNet.uav[61] utilizationCountOverdrawnAfterMission 0
scalar OsgEarthNet.uav[61] utilizationCountIdleState 5
scalar OsgEarthNet.uav[61] utilizationFail 0
scalar OsgEarthNet.uav[61] simulationTime 259200
scalar OsgEarthNet.uav[62] utilizationSecMission 22131.298411029
scalar OsgEarthNet.uav[62] utilizationSecMaintenance 7591.9206639919
scalar OsgEarthNet.uav[62] utilizationSecCharge 109140
scalar OsgEarthNet.uav[62] utilizationSecIdle 120336.77992498
scalar OsgEarthNet.uav[62] utilizationEnergyMission 101447.30599213
scalar OsgEarthNet.uav[62] utilizationEnergyMaintenance 35489.949378967
scalar OsgEarthNet.uav[62] utilizationEnergyCharge 136953.87402344
scalar OsgEarthNet.uav[62] utilizationEnergyOverdrawMission 0
scalar OsgEarthNet.uav[62] utilizationEnergyOverdrawMaintenance 0
scalar OsgEarthNet.uav[62] utilizationCountMissions 29
scalar OsgEarthNet.uav[62] utilizationCountManeuversMission 387
scalar OsgEarthNet.uav[62] utilizationCountManeuversMaintenance 58
scalar OsgEarthNet.uav[62] utilizationCountChargeState 29
scalar OsgEarthNet.uav[62] utilizationCountOverdrawnAfterMission 0
scalar OsgEarthNet.uav[62] utilizationCountIdleState 30
scalar OsgEarthNet.uav[62] utilizationFail 0
scalar OsgEarthNet.uav[62] simulationTime 259200
scalar OsgEarthNet.uav[63] utilizationSecMission 25681.899369513
scalar OsgEarthNet.uav[63] utilizationSecMaintenance 8184.2225973966
scalar OsgEarthNet.uav[63] utilizationSecCharge 125390
scalar OsgEarthNet.uav[63] utilizationSecIdle 99943.87703309
scalar OsgEarthNet.uav[63] utilizationEnergyMission 117440.29079437
scalar OsgEarthNet.uav[63] utilizationEnergyMaintenance 39581.732414246
scalar OsgEarthNet.uav[63] utilizationEnergyCharge 156822.48242188
scalar OsgEarthNet.uav[63] utilizationEnergyOverdrawMission 0
scalar OsgEarthNet.uav[63] utilizationEnergyOverdrawMaintenance 0
scalar OsgEarthNet.uav[63] utilizationCountMissions 34
scalar OsgEarthNet.uav[63] utilizationCountManeuversMission 392
scalar OsgEarthNet.uav[63] utilizationCountManeuversMaintenance 68
scalar OsgEarthNet.uav[63] utilizationCountChargeState 34
scalar OsgEarthNet.uav[63] utilizationCountOverdrawnAfterMission 0
scalar OsgEarthNet.uav[63] utilizationCountIdleState 33
scalar OsgEarthNet.uav[63] utilizationFail 0
scalar OsgEarthNet.uav[63] simulationTime 259200
scalar OsgEarthNet.uav[64] utilizationSecMission 11449.364336129
scalar OsgEarthNet.uav[64] utilizationSecMaintenance 6521.5570760708
scalar OsgEarthNet.uav[64] utilizationSecCharge 64400
scalar OsgEarthNet.uav[64] utilizationSecIdle 176829.0775878
scalar OsgEarthNet.uav[64] utilizationEnergyMission 54312.8253479
scalar OsgEarthNet.uav[64] utilizationEnergyMaintenance 31503.084324967
scalar OsgEarthNet.uav[64] utilizationEnergyCharge 81122.54296875
scalar OsgEarthNet.uav[64] utilizationEnergyOverdrawMission 0
scalar OsgEarthNet.uav[64] utilizationEnergyOverdrawMaintenance 0
scalar OsgEarthNet.uav[64] utilizationCountMissions 18
scalar OsgEarthNet.uav[64] utilizationCountManeuversMission 193
scalar OsgEarthNet.uav[64] utilizationCountManeuversMaintenance 36
scalar OsgEarthNet.uav[64] utilizationCountChargeState 17
scalar OsgEarthNet.uav[64] utilizationCountOverdrawnAfterMission 0
scalar OsgEarthNet.uav[64] utilizationCountIdleState 17
scalar OsgEarthNet.uav[64] utilizationFail 0
scalar OsgEarthNet.uav[64] simulationTime 259200
scalar OsgEarthNet.uav[65] utilizationSecMission 23951.768782856
scalar OsgEarthNet.uav[65] utilizationSecMaintenance 8150.5420265267
[...]
scalar OsgEarthNet.uav[82] utilizationSecIdle 96292.702667718
scalar OsgEarthNet.uav[82] utilizationEnergyMission 123600.71205902
scalar OsgEarthNet.uav[82] utilizationEnergyMaintenance 39224.576774597
scalar OsgEarthNet.uav[82] utilizationEnergyCharge 161744.87890625
scalar OsgEarthNet.uav[82] utilizationEnergyOverdrawMission 0
scalar OsgEarthNet.uav[82] utilizationEnergyOverdrawMaintenance 0
scalar OsgEarthNet.uav[82] utilizationCountMissions 34
scalar OsgEarthNet.uav[82] utilizationCountManeuversMission 454
scalar OsgEarthNet.uav[82] utilizationCountManeuversMaintenance 68
scalar OsgEarthNet.uav[82] utilizationCountChargeState 34
scalar OsgEarthNet.uav[82] utilizationCountOverdrawnAfterMission 0
scalar OsgEarthNet.uav[82] utilizationCountIdleState 34
scalar OsgEarthNet.uav[82] utilizationFail 0
scalar OsgEarthNet.uav[82] simulationTime 259200
scalar OsgEarthNet.uav[83] utilizationSecMission 12603.195001604
scalar OsgEarthNet.uav[83] utilizationSecMaintenance 4217.3597200892
scalar OsgEarthNet.uav[83] utilizationSecCharge 63190
scalar OsgEarthNet.uav[83] utilizationSecIdle 179189.44427831
scalar OsgEarthNet.uav[83] utilizationEnergyMission 58941.153785706
scalar OsgEarthNet.uav[83] utilizationEnergyMaintenance 19996.802848816
scalar OsgEarthNet.uav[83] utilizationEnergyCharge 78937.956542969
scalar OsgEarthNet.uav[83] utilizationEnergyOverdrawMission 0
scalar OsgEarthNet.uav[83] utilizationEnergyOverdrawMaintenance 0
scalar OsgEarthNet.uav[83] utilizationCountMissions 17
scalar OsgEarthNet.uav[83] utilizationCountManeuversMission 195
scalar OsgEarthNet.uav[83] utilizationCountManeuversMaintenance 34
scalar OsgEarthNet.uav[83] utilizationCountChargeState 17
scalar OsgEarthNet.uav[83] utilizationCountOverdrawnAfterMission 0
scalar OsgEarthNet.uav[83] utilizationCountIdleState 18
scalar OsgEarthNet.uav[83] utilizationFail 0
scalar OsgEarthNet.uav[83] simulationTime 259200
scalar OsgEarthNet.uav[84] utilizationSecMission 1940.6126233068
scalar OsgEarthNet.uav[84] utilizationSecMaintenance 1103.9180477485
scalar OsgEarthNet.uav[84] utilizationSecCharge 11280
scalar OsgEarthNet.uav[84] utilizationSecIdle 244875.46832894
scalar OsgEarthNet.uav[84] utilizationEnergyMission 8838.8113861084
scalar OsgEarthNet.uav[84] utilizationEnergyMaintenance 5332.9417266846
scalar OsgEarthNet.uav[84] utilizationEnergyCharge 14171.74609375
scalar OsgEarthNet.uav[84] utilizationEnergyOverdrawMission 0
scalar OsgEarthNet.uav[84] utilizationEnergyOverdrawMaintenance 0
scalar OsgEarthNet.uav[84] utilizationCountMissions 3
scalar OsgEarthNet.uav[84] utilizationCountManeuversMission 32
scalar OsgEarthNet.uav[84] utilizationCountManeuversMaintenance 6
scalar OsgEarthNet.uav[84] utilizationCountChargeState 3
scalar OsgEarthNet.uav[84] utilizationCountOverdrawnAfterMission 0
scalar OsgEarthNet.uav[84] utilizationCountIdleState 4
scalar OsgEarthNet.uav[84] utilizationFail 0
scalar OsgEarthNet.uav[84] simulationTime 259200
scalar OsgEarthNet.uav[85] utilizationSecMission 22799.668850373
scalar OsgEarthNet.uav[85] utilizationSecMaintenance 8139.8435887691
scalar OsgEarthNet.uav[85] utilizationSecCharge 113660
scalar OsgEarthNet.uav[85] utilizationSecIdle 114600.48656086
scalar OsgEarthNet.uav[85] utilizationEnergyMission 105208.46214294
scalar OsgEarthNet.uav[85] utilizationEnergyMaintenance 37572.538078308
scalar OsgEarthNet.uav[85] utilizationEnergyCharge 142909.71630859
scalar OsgEarthNet.uav[85] utilizationEnergyOverdrawMission 0
scalar OsgEarthNet.uav[85] utilizationEnergyOverdrawMaintenance 0
scalar OsgEarthNet.uav[85] utilizationCountMissions 30
scalar OsgEarthNet.uav[85] utilizationCountManeuversMission 388
scalar OsgEarthNet.uav[85] utilizationCountManeuversMaintenance 60
scalar OsgEarthNet.uav[85] utilizationCountChargeState 30
scalar OsgEarthNet.uav[85] utilizationCountOverdrawnAfterMission 0
scalar OsgEarthNet.uav[85] utilizationCountIdleState 31
scalar OsgEarthNet.uav[85] utilizationFail 0
scalar OsgEarthNet.uav[85] simulationTime 259200
scalar OsgEarthNet.uav[86] utilizationSecMission 6163.5237435038
scalar OsgEarthNet.uav[86] utilizationSecMaintenance 2937.0942008781
scalar OsgEarthNet.uav[86] utilizationSecCharge 33570
scalar OsgEarthNet.uav[86] utilizationSecIdle 216529.38105562
scalar OsgEarthNet.uav[86] utilizationEnergyMission 27857.279464722
scalar OsgEarthNet.uav[86] utilizationEnergyMaintenance 14083.554161072
scalar OsgEarthNet.uav[86] utilizationEnergyCharge 41940.845214844
scalar OsgEarthNet.uav[86] utilizationEnergyOverdrawMission 0
scalar OsgEarthNet.uav[86] utilizationEnergyOverdrawMaintenance 0
scalar OsgEarthNet.uav[86] utilizationCountMissions 9
scalar OsgEarthNet.uav[86] utilizationCountManeuversMission 96
scalar OsgEarthNet.uav[86] utilizationCountManeuversMaintenance 18
scalar OsgEarthNet.uav[86] utilizationCountChargeState 9
scalar OsgEarthNet.uav[86] utilizationCountOverdrawnAfterMission 0
scalar OsgEarthNet.uav[86] utilizationCountIdleState 10
scalar OsgEarthNet.uav[86] utilizationFail 0
scalar OsgEarthNet.uav[86] simulationTime 259200
scalar OsgEarthNet.uav[87] utilizationSecMission 6929.7724383351
scalar OsgEarthNet.uav[87] utilizationSecMaintenance 3072.0674604724
scalar OsgEarthNet.uav[87] utilizationSecCharge 36770
scalar OsgEarthNet.uav[87] utilizationSecIdle 212428.15910119
scalar OsgEarthNet.uav[87] utilizationEnergyMission 31931.729629517
scalar OsgEarthNet.uav[87] utilizationEnergyMaintenance 14762.290714264
scalar OsgEarthNet.uav[87] utilizationEnergyCharge 46694.014648438
scalar OsgEarthNet.uav[87] utilizationEnergyOverdrawMission 0
scalar OsgEarthNet.uav[87] utilizationEnergyOverdrawMaintenance 0
scalar OsgEarthNet.uav[87] utilizationCountMissions 10
scalar OsgEarthNet.uav[87] utilizationCountManeuversMission 118
scalar OsgEarthNet.uav[87] utilizationCountManeuversMaintenance 20
scalar OsgEarthNet.uav[87] utilizationCountChargeState 10
scalar OsgEarthNet.uav[87] utilizationCountOverdrawnAfterMission 0
scalar OsgEarthNet.uav[87] utilizationCountIdleState 8
scalar OsgEarthNet.uav[87] utilizationFail 0
scalar OsgEarthNet.uav[87] simulationTime 259200
scalar OsgEarthNet.uav[88] utilizationSecMission 26160.259517517
scalar OsgEarthNet.uav[88] utilizationSecMaintenance 9403.9578834741
scalar OsgEarthNet.uav[88] utilizationSecCharge 128400
scalar OsgEarthNet.uav[88] utilizationSecIdle 95235.781599009
scalar OsgEarthNet.uav[88] utilizationEnergyMission 120878.14694627
scalar OsgEarthNet.uav[88] utilizationEnergyMaintenance 43365.755729675
scalar OsgEarthNet.uav[88] utilizationEnergyCharge 161259.15185547
scalar OsgEarthNet.uav[88] utilizationEnergyOverdrawMission 0
scalar OsgEarthNet.uav[88] utilizationEnergyOverdrawMaintenance 0
scalar OsgEarthNet.uav[88] utilizationCountMissions 34
scalar OsgEarthNet.uav[88] utilizationCountManeuversMission 463
scalar OsgEarthNet.uav[88] utilizationCountManeuversMaintenance 69
scalar OsgEarthNet.uav[88] utilizationCountChargeState 34
scalar OsgEarthNet.uav[88] utilizationCountOverdrawnAfterMission 0
scalar OsgEarthNet.uav[88] utilizationCountIdleState 35
scalar OsgEarthNet.uav[88] utilizationFail 0
scalar OsgEarthNet.uav[88] simulationTime 259200
scalar OsgEarthNet.uav[89] utilizationSecMission 5757.7987081323
scalar OsgEarthNet.uav[89] utilizationSecMaintenance 3198.5995836973
scalar OsgEarthNet.uav[89] utilizationSecCharge 33210
scalar OsgEarthNet.uav[89] utilizationSecIdle 217033.60070817
scalar OsgEarthNet.uav[89] utilizationEnergyMission 26956.649452209
scalar OsgEarthNet.uav[89] utilizationEnergyMaintenance 14965.014324188
scalar OsgEarthNet.uav[89] utilizationEnergyCharge 41921.670898438
scalar OsgEarthNet.uav[89] utilizationEnergyOverdrawMission 0
scalar OsgEarthNet.uav[89] utilizationEnergyOverdrawMaintenance 0
scalar OsgEarthNet.uav[89] utilizationCountMissions 9
scalar OsgEarthNet.uav[89] utilizationCountManeuversMission 98
scalar OsgEarthNet.uav[89] utilizationCountManeuversMaintenance 18
scalar OsgEarthNet.uav[89] utilizationCountChargeState 9
scalar OsgEarthNet.uav[89] utilizationCountOverdrawnAfterMission 0
scalar OsgEarthNet.uav[89] utilizationCountIdleState 9
scalar OsgEarthNet.uav[89] utilizationFail 0
scalar OsgEarthNet.uav[89] simulationTime 259200
scalar OsgEarthNet.uav[90] utilizationSecMission 14021.223982889
scalar OsgEarthNet.uav[90] utilizationSecMaintenance 5817.9544986617
scalar OsgEarthNet.uav[90] utilizationSecCharge 73880
scalar OsgEarthNet.uav[90] utilizationSecIdle 165480.82051845
scalar OsgEarthNet.uav[90] utilizationEnergyMission 65230.592529297
scalar OsgEarthNet.uav[90] utilizationEnergyMaintenance 27460.171962738
scalar OsgEarthNet.uav[90] utilizationEnergyCharge 92648.609375
scalar OsgEarthNet.uav[90] utilizationEnergyOverdrawMission 0
scalar OsgEarthNet.uav[90] utilizationEnergyOverdrawMaintenance 0
scalar OsgEarthNet.uav[90] utilizationCountMissions 20
scalar OsgEarthNet.uav[90] utilizationCountManeuversMission 230
scalar OsgEarthNet.uav[90] utilizationCountManeuversMaintenance 40
scalar OsgEarthNet.uav[90] utilizationCountChargeState 20
scalar OsgEarthNet.uav[90] utilizationCountOverdrawnAfterMission 0
scalar OsgEarthNet.uav[90] utilizationCountIdleState 17
scalar OsgEarthNet.uav[90] utilizationFail 0
scalar OsgEarthNet.uav[90] simulationTime 259200
scalar OsgEarthNet.uav[91] utilizationSecMission 3671.2777083297
scalar OsgEarthNet.uav[91] utilizationSecMaintenance 1466.282112479
scalar OsgEarthNet.uav[91] utilizationSecCharge 19010
scalar OsgEarthNet.uav[91] utilizationSecIdle 235052.43917919
scalar OsgEarthNet.uav[91] utilizationEnergyMission 16692.094062805
scalar OsgEarthNet.uav[91] utilizationEnergyMaintenance 7242.075843811
scalar OsgEarthNet.uav[91] utilizationEnergyCharge 23934.171875
scalar OsgEarthNet.uav[91] utilizationEnergyOverdrawMission 0
scalar OsgEarthNet.uav[91] utilizationEnergyOverdrawMaintenance 0
scalar OsgEarthNet.uav[91] utilizationCountMissions 5
scalar OsgEarthNet.uav[91] utilizationCountManeuversMission 59
scalar OsgEarthNet.uav[91] utilizationCountManeuversMaintenance 10
scalar OsgEarthNet.uav[91] utilizationCountChargeState 5
scalar OsgEarthNet.uav[91] utilizationCountOverdrawnAfterMission 0
scalar OsgEarthNet.uav[91] utilizationCountIdleState 6
scalar OsgEarthNet.uav[91] utilizationFail 0
scalar OsgEarthNet.uav[91] simulationTime 259200
scalar OsgEarthNet.uav[92] utilizationSecMission 26827.304712225
scalar OsgEarthNet.uav[92] utilizationSecMaintenance 9126.5575105759
scalar OsgEarthNet.uav[92] utilizationSecCharge 130313.42063536
scalar OsgEarthNet.uav[92] utilizationSecIdle 92932.71614184
scalar OsgEarthNet.uav[92] utilizationEnergyMission 124501.92596436
scalar OsgEarthNet.uav[92] utilizationEnergyMaintenance 42003.483661652
scalar OsgEarthNet.uav[92] utilizationEnergyCharge 164519.2590332
scalar OsgEarthNet.uav[92] utilizationEnergyOverdrawMission 0
scalar OsgEarthNet.uav[92] utilizationEnergyOverdrawMaintenance 0
scalar OsgEarthNet.uav[92] utilizationCountMissions 35
scalar OsgEarthNet.uav[92] utilizationCountManeuversMission 469
scalar OsgEarthNet.uav[92] utilizationCountManeuversMaintenance 70
scalar OsgEarthNet.uav[92] utilizationCountChargeState 35
scalar OsgEarthNet.uav[92] utilizationCountOverdrawnAfterMission 0
scalar OsgEarthNet.uav[92] utilizationCountIdleState 35
scalar OsgEarthNet.uav[92] utilizationFail 0
scalar OsgEarthNet.uav[92] simulationTime 259200
scalar OsgEarthNet.uav[93] utilizationSecMission 7220.2154373735
scalar OsgEarthNet.uav[93] utilizationSecMaintenance 3677.181935612
scalar OsgEarthNet.uav[93] utilizationSecCharge 40840
scalar OsgEarthNet.uav[93] utilizationSecIdle 207462.60162701
scalar OsgEarthNet.uav[93] utilizationEnergyMission 33866.026420593
scalar OsgEarthNet.uav[93] utilizationEnergyMaintenance 17521.204891205
scalar OsgEarthNet.uav[93] utilizationEnergyCharge 51387.239746094
scalar OsgEarthNet.uav[93] utilizationEnergyOverdrawMission 0
scalar OsgEarthNet.uav[93] utilizationEnergyOverdrawMaintenance 0
scalar OsgEarthNet.uav[93] utilizationCountMissions 11
scalar OsgEarthNet.uav[93] utilizationCountManeuversMission 120
scalar OsgEarthNet.uav[93] utilizationCountManeuversMaintenance 22
scalar OsgEarthNet.uav[93] utilizationCountChargeState 11
scalar OsgEarthNet.uav[93] utilizationCountOverdrawnAfterMission 0
scalar OsgEarthNet.uav[93] utilizationCountIdleState 10
scalar OsgEarthNet.uav[93] utilizationFail 0
scalar OsgEarthNet.uav[93] simulationTime 259200
scalar OsgEarthNet.uav[94] utilizationSecMission 4055.2999218571
scalar OsgEarthNet.uav[94] utilizationSecMaintenance 2058.3068785916
scalar OsgEarthNet.uav[94] utilizationSecCharge 22540
scalar OsgEarthNet.uav[94] utilizationSecIdle 230546.39219955
scalar OsgEarthNet.uav[94] utilizationEnergyMission 18494.670043945
scalar OsgEarthNet.uav[94] utilizationEnergyMaintenance 9738.9602127075
scalar OsgEarthNet.uav[94] utilizationEnergyCharge 28233.626464844
scalar OsgEarthNet.uav[94] utilizationEnergyOverdrawMission 0
scalar OsgEarthNet.uav[94] utilizationEnergyOverdrawMaintenance 0
scalar OsgEarthNet.uav[94] utilizationCountMissions 6
scalar OsgEarthNet.uav[94] utilizationCountManeuversMission 66
scalar OsgEarthNet.uav[94] utilizationCountManeuversMaintenance 12
scalar OsgEarthNet.uav[94] utilizationCountChargeState 6
scalar OsgEarthNet.uav[94] utilizationCountOverdrawnAfterMission 0
scalar OsgEarthNet.uav[94] utilizationCountIdleState 7
scalar OsgEarthNet.uav[94] utilizationFail 0
scalar OsgEarthNet.uav[94] simulationTime 259200
scalar OsgEarthNet.uav[95] utilizationSecMission 28347.532976332
scalar OsgEarthNet.uav[95] utilizationSecMaintenance 8754.6997661685
scalar OsgEarthNet.uav[95] utilizationSecCharge 134211.04742084
scalar OsgEarthNet.uav[95] utilizationSecIdle 87886.718836664
scalar OsgEarthNet.uav[95] utilizationEnergyMission 131008.41290283
scalar OsgEarthNet.uav[95] utilizationEnergyMaintenance 39857.952026367
scalar OsgEarthNet.uav[95] utilizationEnergyCharge 169411.11987305
scalar OsgEarthNet.uav[95] utilizationEnergyOverdrawMission 0
scalar OsgEarthNet.uav[95] utilizationEnergyOverdrawMaintenance 0
scalar OsgEarthNet.uav[95] utilizationCountMissions 36
scalar OsgEarthNet.uav[95] utilizationCountManeuversMission 483
scalar OsgEarthNet.uav[95] utilizationCountManeuversMaintenance 72
scalar OsgEarthNet.uav[95] utilizationCountChargeState 36
scalar OsgEarthNet.uav[95] utilizationCountOverdrawnAfterMission 0
scalar OsgEarthNet.uav[95] utilizationCountIdleState 36
scalar OsgEarthNet.uav[95] utilizationFail 0
scalar OsgEarthNet.uav[95] simulationTime 259200
scalar OsgEarthNet.uav[96] utilizationSecMission 6204.2143491632
scalar OsgEarthNet.uav[96] utilizationSecMaintenance 2981.1582370386
scalar OsgEarthNet.uav[96] utilizationSecCharge 30590.95107447
scalar OsgEarthNet.uav[96] utilizationSecIdle 219423.67533933
scalar OsgEarthNet.uav[96] utilizationEnergyMission 28176.597084045
scalar OsgEarthNet.uav[96] utilizationEnergyMaintenance 14088.657463074
scalar OsgEarthNet.uav[96] utilizationEnergyCharge 38637.163452148
scalar OsgEarthNet.uav[96] utilizationEnergyOverdrawMission 0
scalar OsgEarthNet.uav[96] utilizationEnergyOverdrawMaintenance 0
scalar OsgEarthNet.uav[96] utilizationCountMissions 9
scalar OsgEarthNet.uav[96] utilizationCountManeuversMission 99
scalar OsgEarthNet.uav[96] utilizationCountManeuversMaintenance 18
scalar OsgEarthNet.uav[96] utilizationCountChargeState 9
scalar OsgEarthNet.uav[96] utilizationCountOverdrawnAfterMission 0
scalar OsgEarthNet.uav[96] utilizationCountIdleState 9
scalar OsgEarthNet.uav[96] utilizationFail 0
scalar OsgEarthNet.uav[96] simulationTime 259200
scalar OsgEarthNet.uav[97] utilizationSecMission 7353.152284796
scalar OsgEarthNet.uav[97] utilizationSecMaintenance 3642.7043126934
scalar OsgEarthNet.uav[97] utilizationSecCharge 37211.842871506
scalar OsgEarthNet.uav[97] utilizationSecIdle 210992.299531
scalar OsgEarthNet.uav[97] utilizationEnergyMission 33361.606254578
scalar OsgEarthNet.uav[97] utilizationEnergyMaintenance 17751.727432251
scalar OsgEarthNet.uav[97] utilizationEnergyCharge 47490.344360352
scalar OsgEarthNet.uav[97] utilizationEnergyOverdrawMission 0
scalar OsgEarthNet.uav[97] utilizationEnergyOverdrawMaintenance 0
scalar OsgEarthNet.uav[97] utilizationCountMissions 11
scalar OsgEarthNet.uav[97] utilizationCountManeuversMission 117
scalar OsgEarthNet.uav[97] utilizationCountManeuversMaintenance 22
scalar OsgEarthNet.uav[97] utilizationCountChargeState 11
scalar OsgEarthNet.uav[97] utilizationCountOverdrawnAfterMission 0
scalar OsgEarthNet.uav[97] utilizationCountIdleState 8
scalar OsgEarthNet.uav[97] utilizationFail 0
scalar OsgEarthNet.uav[97] simulationTime 259200
scalar OsgEarthNet.uav[98] utilizationSecMission 3719.7724959542
scalar OsgEarthNet.uav[98] utilizationSecMaintenance 2336.6376851487
scalar OsgEarthNet.uav[98] utilizationSecCharge 22460
scalar OsgEarthNet.uav[98] utilizationSecIdle 230683.5888189
scalar OsgEarthNet.uav[98] utilizationEnergyMission 17933.296730041
scalar OsgEarthNet.uav[98] utilizationEnergyMaintenance 10865.119972229
scalar OsgEarthNet.uav[98] utilizationEnergyCharge 28798.416992188
scalar OsgEarthNet.uav[98] utilizationEnergyOverdrawMission 0
scalar OsgEarthNet.uav[98] utilizationEnergyOverdrawMaintenance 0
scalar OsgEarthNet.uav[98] utilizationCountMissions 6
scalar OsgEarthNet.uav[98] utilizationCountManeuversMission 62
scalar OsgEarthNet.uav[98] utilizationCountManeuversMaintenance 12
scalar OsgEarthNet.uav[98] utilizationCountChargeState 6
scalar OsgEarthNet.uav[98] utilizationCountOverdrawnAfterMission 0
scalar OsgEarthNet.uav[98] utilizationCountIdleState 6
scalar OsgEarthNet.uav[98] utilizationFail 0
scalar OsgEarthNet.uav[98] simulationTime 259200
scalar OsgEarthNet.uav[99] utilizationSecMission 9161.2287671551
scalar OsgEarthNet.uav[99] utilizationSecMaintenance 4018.3728845564
scalar OsgEarthNet.uav[99] utilizationSecCharge 48340
scalar OsgEarthNet.uav[99] utilizationSecIdle 197680.39734829
scalar OsgEarthNet.uav[99] utilizationEnergyMission 41778.602043152
scalar OsgEarthNet.uav[99] utilizationEnergyMaintenance 18968.277828217
scalar OsgEarthNet.uav[99] utilizationEnergyCharge 60746.870605469
scalar OsgEarthNet.uav[99] utilizationEnergyOverdrawMission 0
scalar OsgEarthNet.uav[99] utilizationEnergyOverdrawMaintenance 0
scalar OsgEarthNet.uav[99] utilizationCountMissions 13
scalar OsgEarthNet.uav[99] utilizationCountManeuversMission 146
scalar OsgEarthNet.uav[99] utilizationCountManeuversMaintenance 26
scalar OsgEarthNet.uav[99] utilizationCountChargeState 13
scalar OsgEarthNet.uav[99] utilizationCountOverdrawnAfterMission 0
scalar OsgEarthNet.uav[99] utilizationCountIdleState 13
scalar OsgEarthNet.uav[99] utilizationFail 0
scalar OsgEarthNet.uav[99] simulationTime 259200
scalar OsgEarthNet.cs[0] usedPower 14243.243276546
scalar OsgEarthNet.cs[0] chargedPower 14243.243276546
scalar OsgEarthNet.cs[0] chargedMobileNodes 3
scalar OsgEarthNet.cs[0] reservations 3
scalar OsgEarthNet.cs[1] usedPower 972182.68924649
scalar OsgEarthNet.cs[1] chargedPower 972182.68924649
scalar OsgEarthNet.cs[1] chargedMobileNodes 205
scalar OsgEarthNet.cs[1] reservations 207
scalar OsgEarthNet.cs[2] usedPower 3122926.5516502
scalar OsgEarthNet.cs[2] chargedPower 3122926.5516502
scalar OsgEarthNet.cs[2] chargedMobileNodes 650
scalar OsgEarthNet.cs[2] reservations 660
scalar OsgEarthNet.cs[3] usedPower 0
scalar OsgEarthNet.cs[3] chargedPower 0
scalar OsgEarthNet.cs[3] chargedMobileNodes 0
scalar OsgEarthNet.cs[3] reservations 0
scalar OsgEarthNet.cs[4] usedPower 630074.56337941
scalar OsgEarthNet.cs[4] chargedPower 630074.56337941
scalar OsgEarthNet.cs[4] chargedMobileNodes 88
scalar OsgEarthNet.cs[4] reservations 136
scalar OsgEarthNet.cs[5] usedPower 241934.95807499
scalar OsgEarthNet.cs[5] chargedPower 241934.95807499
scalar OsgEarthNet.cs[5] chargedMobileNodes 39
scalar OsgEarthNet.cs[5] reservations 52
scalar OsgEarthNet.cs[6] usedPower 3147961.4279401
scalar OsgEarthNet.cs[6] chargedPower 3147961.4279401
scalar OsgEarthNet.cs[6] chargedMobileNodes 615
scalar OsgEarthNet.cs[6] reservations 683

