version 2
run Szenario_Hotel_Gabelbach-29-20180710-14:40:18-17444
attr configname Szenario_Hotel_Gabelbach
attr datetime 20180710-14:40:18
attr experiment Szenario_Hotel_Gabelbach
attr inifile omnetpp.ini
attr iterationvars "$replM=0, $replSearchM=1"
attr iterationvarsf replM=0,replSearchM=1-
attr measurement "$replM=0, $replSearchM=1"
attr network OsgEarthNet
attr processid 17444
attr repetition 13
attr replication #13
attr resultdir results
attr runnumber 29
attr seedset 29
itervar replM 0
itervar replSearchM 1
param *.osgEarthScene.scene "\"Szenario_Hotel_Gabelbach.earth\""
param *.playgroundLatitude 50.6830269
param *.playgroundLongitude 10.8538055
param *.playgroundWidth 3500m
param *.playgroundHeight 3500m
param *.numUAVs 100
param *.cs[0].posX 3537m
param *.cs[0].posY 965m
param *.cs[0].posZ 538m
param *.cs[1].posX 312m
param *.cs[1].posY 1262m
param *.cs[1].posZ 539m
param *.cs[2].posX 2185m
param *.cs[2].posY 3026m
param *.cs[2].posZ 777m
param *.cs[3].posX 10m
param *.cs[3].posY 2200m
param *.cs[3].posZ 560m
param *.cs[4].posX 750m
param *.cs[4].posY 200m
param *.cs[4].posZ 540m
param *.cs[5].posX 2450m
param *.cs[5].posY 180m
param *.cs[5].posZ 524m
param *.cs[6].posX 3140m
param *.cs[6].posY 1790m
param *.cs[6].posZ 606m
param *.numCSs 7
param *.uav[*].replacementMethod 0
param *.missionControl.replacementSearchMethod 1
param *.*.timeStep 10s
param *.uav[*].commandPreviewCommandCount 20
param *.missionControl.missionFiles "\"missions\\\\Szenario_WB_Hotel_Gabelbach_Mission_Hotel.waypoints,missions\\\\Szenario_WB_Hotel_Gabelbach_Mission_Kickelhahn.waypoints,missions\\\\Szenario_WB_Hotel_Gabelbach_Mission_Ilmenau_Sportplatz.waypoints,missions\\\\Szenario_WB_Hotel_Gabelbach_Mission_Manebach_Mitte.waypoints,missions\\\\Szenario_WB_Hotel_Gabelbach_Mission_Manebach_Sued.waypoints\""
param *.missionControl.missionFiles "\"missions\\\\Szenario_WB_Hotel_Gabelbach_Mission_Hotel.waypoints,missions\\\\Szenario_WB_Hotel_Gabelbach_Mission_Kickelhahn.waypoints,missions\\\\Szenario_WB_Hotel_Gabelbach_Mission_Ilmenau_Sportplatz.waypoints,missions\\\\Szenario_WB_Hotel_Gabelbach_Mission_Manebach_Mitte.waypoints,missions\\\\Szenario_WB_Hotel_Gabelbach_Mission_Manebach_Sued.waypoints,missions\\\\Szenario_WB_Hotel_Gabelbach_Hover_HoheSchlaufe.waypoints,missions\\\\Szenario_WB_Hotel_Gabelbach_Hover_Kickelhahn.waypoints,missions\\\\Szenario_WB_Hotel_Gabelbach_Hover_Gabelbachskopf.waypoints,missions\\\\Szenario_WB_Hotel_Gabelbach_Hover_Dachskopf.waypoints\""
param *.uav[0].startX 3537m
param *.uav[0].startY 965m
param *.uav[0].startZ 539m
param *.uav[1].startX 312m
param *.uav[1].startY 1262m
param *.uav[1].startZ 540m
param *.uav[2].startX 2185m
param *.uav[2].startY 3026m
param *.uav[2].startZ 778m
param *.uav[3].startX 3537m
param *.uav[3].startY 965m
param *.uav[3].startZ 539m
param *.uav[4].startX 312m
param *.uav[4].startY 1262m
param *.uav[4].startZ 540m
param *.uav[5].startX 2185m
param *.uav[5].startY 3026m
param *.uav[5].startZ 778m
param *.uav[6].startX 3537m
param *.uav[6].startY 965m
param *.uav[6].startZ 539m
param *.uav[7].startX 312m
param *.uav[7].startY 1262m
param *.uav[7].startZ 540m
param *.uav[8].startX 2185m
param *.uav[8].startY 3026m
param *.uav[8].startZ 778m
param *.uav[9].startX 3537m
param *.uav[9].startY 965m
param *.uav[9].startZ 539m
param *.uav[10].startX 3537m
param *.uav[10].startY 965m
param *.uav[10].startZ 539m
param *.uav[11].startX 312m
param *.uav[11].startY 1262m
param *.uav[11].startZ 540m
param *.uav[12].startX 2185m
param *.uav[12].startY 3026m
param *.uav[12].startZ 778m
param *.uav[13].startX 3537m
param *.uav[13].startY 965m
param *.uav[13].startZ 539m
param *.uav[14].startX 312m
param *.uav[14].startY 1262m
param *.uav[14].startZ 540m
param *.uav[15].startX 2185m
param *.uav[15].startY 3026m
param *.uav[15].startZ 778m
param *.uav[16].startX 3537m
param *.uav[16].startY 965m
param *.uav[16].startZ 539m
param *.uav[17].startX 312m
param *.uav[17].startY 1262m
param *.uav[17].startZ 540m
param *.uav[18].startX 2185m
param *.uav[18].startY 3026m
param *.uav[18].startZ 778m
param *.uav[19].startX 3537m
param *.uav[19].startY 965m
param *.uav[19].startZ 539m
param *.uav[20].startX 3537m
param *.uav[20].startY 965m
param *.uav[20].startZ 539m
param *.uav[21].startX 312m
param *.uav[21].startY 1262m
param *.uav[21].startZ 540m
param *.uav[22].startX 2185m
param *.uav[22].startY 3026m
param *.uav[22].startZ 778m
param *.uav[23].startX 3537m
param *.uav[23].startY 965m
param *.uav[23].startZ 539m
param *.uav[24].startX 312m
param *.uav[24].startY 1262m
param *.uav[24].startZ 540m
param *.uav[25].startX 2185m
param *.uav[25].startY 3026m
param *.uav[25].startZ 778m
param *.uav[26].startX 3537m
param *.uav[26].startY 965m
param *.uav[26].startZ 539m
param *.uav[27].startX 312m
param *.uav[27].startY 1262m
param *.uav[27].startZ 540m
param *.uav[28].startX 2185m
param *.uav[28].startY 3026m
param *.uav[28].startZ 778m
param *.uav[29].startX 3537m
param *.uav[29].startY 965m
param *.uav[29].startZ 539m
param *.uav[30].startX 3537m
param *.uav[30].startY 965m
param *.uav[30].startZ 539m
param *.uav[31].startX 312m
param *.uav[31].startY 1262m
param *.uav[31].startZ 540m
param *.uav[32].startX 2185m
param *.uav[32].startY 3026m
param *.uav[32].startZ 778m
param *.uav[33].startX 3537m
param *.uav[33].startY 965m
param *.uav[33].startZ 539m
param *.uav[34].startX 312m
param *.uav[34].startY 1262m
param *.uav[34].startZ 540m
param *.uav[35].startX 2185m
param *.uav[35].startY 3026m
param *.uav[35].startZ 778m
param *.uav[36].startX 3537m
param *.uav[36].startY 965m
param *.uav[36].startZ 539m
param *.uav[37].startX 312m
param *.uav[37].startY 1262m
param *.uav[37].startZ 540m
param *.uav[38].startX 2185m
param *.uav[38].startY 3026m
param *.uav[38].startZ 778m
param *.uav[39].startX 3537m
param *.uav[39].startY 965m
param *.uav[39].startZ 539m
param *.uav[40].startX 3537m
param *.uav[40].startY 965m
param *.uav[40].startZ 539m
param *.uav[41].startX 312m
param *.uav[41].startY 1262m
param *.uav[41].startZ 540m
param *.uav[42].startX 2185m
param *.uav[42].startY 3026m
param *.uav[42].startZ 778m
param *.uav[43].startX 3537m
param *.uav[43].startY 965m
param *.uav[43].startZ 539m
param *.uav[44].startX 312m
param *.uav[44].startY 1262m
param *.uav[44].startZ 540m
param *.uav[45].startX 2185m
param *.uav[45].startY 3026m
param *.uav[45].startZ 778m
param *.uav[46].startX 3537m
param *.uav[46].startY 965m
param *.uav[46].startZ 539m
param *.uav[47].startX 312m
param *.uav[47].startY 1262m
param *.uav[47].startZ 540m
param *.uav[48].startX 2185m
param *.uav[48].startY 3026m
param *.uav[48].startZ 778m
param *.uav[49].startX 3537m
param *.uav[49].startY 965m
param *.uav[49].startZ 539m
param *.uav[50].startX 3537m
param *.uav[50].startY 965m
param *.uav[50].startZ 539m
param *.uav[51].startX 312m
param *.uav[51].startY 1262m
param *.uav[51].startZ 540m
param *.uav[52].startX 2185m
param *.uav[52].startY 3026m
param *.uav[52].startZ 778m
param *.uav[53].startX 3537m
param *.uav[53].startY 965m
param *.uav[53].startZ 539m
param *.uav[54].startX 312m
param *.uav[54].startY 1262m
param *.uav[54].startZ 540m
param *.uav[55].startX 2185m
param *.uav[55].startY 3026m
param *.uav[55].startZ 778m
param *.uav[56].startX 3537m
param *.uav[56].startY 965m
param *.uav[56].startZ 539m
param *.uav[57].startX 312m
param *.uav[57].startY 1262m
param *.uav[57].startZ 540m
param *.uav[58].startX 2185m
param *.uav[58].startY 3026m
param *.uav[58].startZ 778m
param *.uav[59].startX 3537m
param *.uav[59].startY 965m
param *.uav[59].startZ 539m
param *.uav[60].startX 3537m
param *.uav[60].startY 965m
param *.uav[60].startZ 539m
param *.uav[61].startX 312m
param *.uav[61].startY 1262m
param *.uav[61].startZ 540m
param *.uav[62].startX 2185m
param *.uav[62].startY 3026m
param *.uav[62].startZ 778m
param *.uav[63].startX 3537m
param *.uav[63].startY 965m
param *.uav[63].startZ 539m
param *.uav[64].startX 312m
param *.uav[64].startY 1262m
param *.uav[64].startZ 540m
param *.uav[65].startX 2185m
param *.uav[65].startY 3026m
param *.uav[65].startZ 778m
param *.uav[66].startX 3537m
param *.uav[66].startY 965m
param *.uav[66].startZ 539m
param *.uav[67].startX 312m
param *.uav[67].startY 1262m
param *.uav[67].startZ 540m
param *.uav[68].startX 2185m
param *.uav[68].startY 3026m
param *.uav[68].startZ 778m
param *.uav[69].startX 3537m
param *.uav[69].startY 965m
param *.uav[69].startZ 539m
param *.uav[70].startX 3537m
param *.uav[70].startY 965m
param *.uav[70].startZ 539m
param *.uav[71].startX 312m
param *.uav[71].startY 1262m
param *.uav[71].startZ 540m
param *.uav[72].startX 2185m
param *.uav[72].startY 3026m
param *.uav[72].startZ 778m
param *.uav[73].startX 3537m
param *.uav[73].startY 965m
param *.uav[73].startZ 539m
param *.uav[74].startX 312m
param *.uav[74].startY 1262m
param *.uav[74].startZ 540m
param *.uav[75].startX 2185m
param *.uav[75].startY 3026m
param *.uav[75].startZ 778m
param *.uav[76].startX 3537m
param *.uav[76].startY 965m
param *.uav[76].startZ 539m
param *.uav[77].startX 312m
param *.uav[77].startY 1262m
param *.uav[77].startZ 540m
param *.uav[78].startX 2185m
param *.uav[78].startY 3026m
param *.uav[78].startZ 778m
param *.uav[79].startX 3537m
param *.uav[79].startY 965m
param *.uav[79].startZ 539m
param *.uav[80].startX 3537m
param *.uav[80].startY 965m
param *.uav[80].startZ 539m
param *.uav[81].startX 312m
param *.uav[81].startY 1262m
param *.uav[81].startZ 540m
param *.uav[82].startX 2185m
param *.uav[82].startY 3026m
param *.uav[82].startZ 778m
param *.uav[83].startX 3537m
param *.uav[83].startY 965m
param *.uav[83].startZ 539m
param *.uav[84].startX 312m
param *.uav[84].startY 1262m
param *.uav[84].startZ 540m
param *.uav[85].startX 2185m
param *.uav[85].startY 3026m
param *.uav[85].startZ 778m
param *.uav[86].startX 3537m
param *.uav[86].startY 965m
param *.uav[86].startZ 539m
param *.uav[87].startX 312m
param *.uav[87].startY 1262m
param *.uav[87].startZ 540m
param *.uav[88].startX 2185m
param *.uav[88].startY 3026m
param *.uav[88].startZ 778m
param *.uav[89].startX 3537m
param *.uav[89].startY 965m
param *.uav[89].startZ 539m
param *.uav[90].startX 3537m
param *.uav[90].startY 965m
param *.uav[90].startZ 539m
param *.uav[91].startX 312m
param *.uav[91].startY 1262m
param *.uav[91].startZ 540m
param *.uav[92].startX 2185m
param *.uav[92].startY 3026m
param *.uav[92].startZ 778m
param *.uav[93].startX 3537m
param *.uav[93].startY 965m
param *.uav[93].startZ 539m
param *.uav[94].startX 312m
param *.uav[94].startY 1262m
param *.uav[94].startZ 540m
param *.uav[95].startX 2185m
param *.uav[95].startY 3026m
param *.uav[95].startZ 778m
param *.uav[96].startX 3537m
param *.uav[96].startY 965m
param *.uav[96].startZ 539m
param *.uav[97].startX 312m
param *.uav[97].startY 1262m
param *.uav[97].startZ 540m
param *.uav[98].startX 2185m
param *.uav[98].startY 3026m
param *.uav[98].startZ 778m
param *.uav[99].startX 3537m
param *.uav[99].startY 965m
param *.uav[99].startZ 539m
param *.osgEarthScene.scene "\"boston.earth\""
param *.playgroundLatitude 42.3558
param *.playgroundLongitude -71.0677
param *.playgroundWidth 400m
param *.playgroundHeight 200m
param *.channelController.connectionColor "\"#0000FF40\""
param *.channelController.showConnections false
param *.uav[*].modelURL "\"quadrocopter.small.obj.15.scale.0,0,90.rot\""
param *.uav[*].labelColor "\"#FF7C00CC\""
param *.uav[*].label2Color "\"#FF7C00EE\""
param *.uav[*].batteryCapacity 5200mAh
param *.uav[*].batteryRemaining uav[index].batteryCapacity
param *.uav[*].predictionQuantile 0.95
param *.uav[*].replacementMethod 2
param *.uav[*].weightedSumWeight 0.5
param *.cs[*].modelURL "\"chargingstation_v1.osgt.2.scale.0,0,0.rot.0,0,-15e-1.trans\""
param *.cs[*].spotsWaiting 999
param *.cs[*].spotsCharging 999
param *.cs[*].chargeEffectivenessPercentage 100
param *.cs[*].nonLinearPhaseStartPercentage 85
param *.cs[*].chargeCurrent 6.0A
param *.cs[*].prioritizeFastCharge true
param *.missionControl.replacementSearchMethod 0
param *.*.timeStep 9s

scalar OsgEarthNet.uav[0] utilizationSecMission 684.4732299383
scalar OsgEarthNet.uav[0] utilizationSecMaintenance 298.56834692969
scalar OsgEarthNet.uav[0] utilizationSecCharge 3760
scalar OsgEarthNet.uav[0] utilizationSecIdle 254456.95742313
scalar OsgEarthNet.uav[0] utilizationEnergyMission 3204.309463501
scalar OsgEarthNet.uav[0] utilizationEnergyMaintenance 1498.7596054077
scalar OsgEarthNet.uav[0] utilizationEnergyCharge 4703.0654296875
scalar OsgEarthNet.uav[0] utilizationEnergyOverdrawMission 0
scalar OsgEarthNet.uav[0] utilizationEnergyOverdrawMaintenance 0
scalar OsgEarthNet.uav[0] utilizationCountMissions 1
scalar OsgEarthNet.uav[0] utilizationCountManeuversMission 11
scalar OsgEarthNet.uav[0] utilizationCountManeuversMaintenance 2
scalar OsgEarthNet.uav[0] utilizationCountChargeState 1
scalar OsgEarthNet.uav[0] utilizationCountOverdrawnAfterMission 0
scalar OsgEarthNet.uav[0] utilizationCountIdleState 2
scalar OsgEarthNet.uav[0] utilizationFail 0
scalar OsgEarthNet.uav[0] simulationTime 259200
scalar OsgEarthNet.uav[1] utilizationSecMission 17694.074315601
scalar OsgEarthNet.uav[1] utilizationSecMaintenance 6154.5849963963
scalar OsgEarthNet.uav[1] utilizationSecCharge 89400
scalar OsgEarthNet.uav[1] utilizationSecIdle 145951.339688
scalar OsgEarthNet.uav[1] utilizationEnergyMission 82023.131202698
scalar OsgEarthNet.uav[1] utilizationEnergyMaintenance 29680.980510712
scalar OsgEarthNet.uav[1] utilizationEnergyCharge 111615.99755859
scalar OsgEarthNet.uav[1] utilizationEnergyOverdrawMission 0
scalar OsgEarthNet.uav[1] utilizationEnergyOverdrawMaintenance 0
scalar OsgEarthNet.uav[1] utilizationCountMissions 24
scalar OsgEarthNet.uav[1] utilizationCountManeuversMission 271
scalar OsgEarthNet.uav[1] utilizationCountManeuversMaintenance 48
scalar OsgEarthNet.uav[1] utilizationCountChargeState 24
scalar OsgEarthNet.uav[1] utilizationCountOverdrawnAfterMission 0
scalar OsgEarthNet.uav[1] utilizationCountIdleState 25
scalar OsgEarthNet.uav[1] utilizationFail 0
scalar OsgEarthNet.uav[1] simulationTime 259200
scalar OsgEarthNet.uav[2] utilizationSecMission 10285.512575271
scalar OsgEarthNet.uav[2] utilizationSecMaintenance 3547.8834465167
scalar OsgEarthNet.uav[2] utilizationSecCharge 52150
scalar OsgEarthNet.uav[2] utilizationSecIdle 193216.60297821
scalar OsgEarthNet.uav[2] utilizationEnergyMission 48053.935428619
scalar OsgEarthNet.uav[2] utilizationEnergyMaintenance 17075.926826477
scalar OsgEarthNet.uav[2] utilizationEnergyCharge 65085.1953125
scalar OsgEarthNet.uav[2] utilizationEnergyOverdrawMission 0
scalar OsgEarthNet.uav[2] utilizationEnergyOverdrawMaintenance 0
scalar OsgEarthNet.uav[2] utilizationCountMissions 14
scalar OsgEarthNet.uav[2] utilizationCountManeuversMission 157
scalar OsgEarthNet.uav[2] utilizationCountManeuversMaintenance 28
scalar OsgEarthNet.uav[2] utilizationCountChargeState 14
scalar OsgEarthNet.uav[2] utilizationCountOverdrawnAfterMission 0
scalar OsgEarthNet.uav[2] utilizationCountIdleState 15
scalar OsgEarthNet.uav[2] utilizationFail 0
scalar OsgEarthNet.uav[2] simulationTime 259200
scalar OsgEarthNet.uav[3] utilizationSecMission 19049.512116275
scalar OsgEarthNet.uav[3] utilizationSecMaintenance 5690.1280880619
scalar OsgEarthNet.uav[3] utilizationSecCharge 91560
scalar OsgEarthNet.uav[3] utilizationSecIdle 142900.35879566
scalar OsgEarthNet.uav[3] utilizationEnergyMission 87586.412368774
scalar OsgEarthNet.uav[3] utilizationEnergyMaintenance 27286.563304901
scalar OsgEarthNet.uav[3] utilizationEnergyCharge 113943.89624023
scalar OsgEarthNet.uav[3] utilizationEnergyOverdrawMission 0
scalar OsgEarthNet.uav[3] utilizationEnergyOverdrawMaintenance 0
scalar OsgEarthNet.uav[3] utilizationCountMissions 25
scalar OsgEarthNet.uav[3] utilizationCountManeuversMission 285
scalar OsgEarthNet.uav[3] utilizationCountManeuversMaintenance 49
scalar OsgEarthNet.uav[3] utilizationCountChargeState 25
scalar OsgEarthNet.uav[3] utilizationCountOverdrawnAfterMission 0
scalar OsgEarthNet.uav[3] utilizationCountIdleState 25
scalar OsgEarthNet.uav[3] utilizationFail 0
scalar OsgEarthNet.uav[3] simulationTime 259200
scalar OsgEarthNet.uav[4] utilizationSecMission 655.55330183502
scalar OsgEarthNet.uav[4] utilizationSecMaintenance 334.5505930207
scalar OsgEarthNet.uav[4] utilizationSecCharge 3590
scalar OsgEarthNet.uav[4] utilizationSecIdle 254619.89510514
scalar OsgEarthNet.uav[4] utilizationEnergyMission 2833.9693450928
scalar OsgEarthNet.uav[4] utilizationEnergyMaintenance 1559.06092453
scalar OsgEarthNet.uav[4] utilizationEnergyCharge 4393.0297851562
scalar OsgEarthNet.uav[4] utilizationEnergyOverdrawMission 0
scalar OsgEarthNet.uav[4] utilizationEnergyOverdrawMaintenance 0
scalar OsgEarthNet.uav[4] utilizationCountMissions 1
scalar OsgEarthNet.uav[4] utilizationCountManeuversMission 10
scalar OsgEarthNet.uav[4] utilizationCountManeuversMaintenance 2
scalar OsgEarthNet.uav[4] utilizationCountChargeState 1
scalar OsgEarthNet.uav[4] utilizationCountOverdrawnAfterMission 0
scalar OsgEarthNet.uav[4] utilizationCountIdleState 2
scalar OsgEarthNet.uav[4] utilizationFail 0
scalar OsgEarthNet.uav[4] simulationTime 259200
scalar OsgEarthNet.uav[5] utilizationSecMission 13032.039714934
scalar OsgEarthNet.uav[5] utilizationSecMaintenance 4869.3922668703
scalar OsgEarthNet.uav[5] utilizationSecCharge 67390
scalar OsgEarthNet.uav[5] utilizationSecIdle 173908.5670182
scalar OsgEarthNet.uav[5] utilizationEnergyMission 60142.975479126
scalar OsgEarthNet.uav[5] utilizationEnergyMaintenance 24099.190677643
scalar OsgEarthNet.uav[5] utilizationEnergyCharge 84242.163085938
scalar OsgEarthNet.uav[5] utilizationEnergyOverdrawMission 0
scalar OsgEarthNet.uav[5] utilizationEnergyOverdrawMaintenance 0
scalar OsgEarthNet.uav[5] utilizationCountMissions 18
scalar OsgEarthNet.uav[5] utilizationCountManeuversMission 203
scalar OsgEarthNet.uav[5] utilizationCountManeuversMaintenance 36
scalar OsgEarthNet.uav[5] utilizationCountChargeState 18
scalar OsgEarthNet.uav[5] utilizationCountOverdrawnAfterMission 0
scalar OsgEarthNet.uav[5] utilizationCountIdleState 19
scalar OsgEarthNet.uav[5] utilizationFail 0
scalar OsgEarthNet.uav[5] simulationTime 259200
scalar OsgEarthNet.uav[6] utilizationSecMission 7291.9654930109
scalar OsgEarthNet.uav[6] utilizationSecMaintenance 2418.7837870669
scalar OsgEarthNet.uav[6] utilizationSecCharge 36730
scalar OsgEarthNet.uav[6] utilizationSecIdle 212759.24971992
scalar OsgEarthNet.uav[6] utilizationEnergyMission 34088.179279327
scalar OsgEarthNet.uav[6] utilizationEnergyMaintenance 11709.723941803
scalar OsgEarthNet.uav[6] utilizationEnergyCharge 45671.742675781
scalar OsgEarthNet.uav[6] utilizationEnergyOverdrawMission 0
scalar OsgEarthNet.uav[6] utilizationEnergyOverdrawMaintenance 0
scalar OsgEarthNet.uav[6] utilizationCountMissions 10
scalar OsgEarthNet.uav[6] utilizationCountManeuversMission 112
scalar OsgEarthNet.uav[6] utilizationCountManeuversMaintenance 20
scalar OsgEarthNet.uav[6] utilizationCountChargeState 10
scalar OsgEarthNet.uav[6] utilizationCountOverdrawnAfterMission 0
scalar OsgEarthNet.uav[6] utilizationCountIdleState 11
scalar OsgEarthNet.uav[6] utilizationFail 0
scalar OsgEarthNet.uav[6] simulationTime 259200
scalar OsgEarthNet.uav[7] utilizationSecMission 13594.135645054
scalar OsgEarthNet.uav[7] utilizationSecMaintenance 4912.0215573676
scalar OsgEarthNet.uav[7] utilizationSecCharge 69470
scalar OsgEarthNet.uav[7] utilizationSecIdle 171223.84179758
scalar OsgEarthNet.uav[7] utilizationEnergyMission 62676.790092468
scalar OsgEarthNet.uav[7] utilizationEnergyMaintenance 23493.837753296
scalar OsgEarthNet.uav[7] utilizationEnergyCharge 86073.612792969
scalar OsgEarthNet.uav[7] utilizationEnergyOverdrawMission 0
scalar OsgEarthNet.uav[7] utilizationEnergyOverdrawMaintenance 0
scalar OsgEarthNet.uav[7] utilizationCountMissions 19
scalar OsgEarthNet.uav[7] utilizationCountManeuversMission 214
scalar OsgEarthNet.uav[7] utilizationCountManeuversMaintenance 38
scalar OsgEarthNet.uav[7] utilizationCountChargeState 19
scalar OsgEarthNet.uav[7] utilizationCountOverdrawnAfterMission 0
scalar OsgEarthNet.uav[7] utilizationCountIdleState 20
scalar OsgEarthNet.uav[7] utilizationFail 0
scalar OsgEarthNet.uav[7] simulationTime 259200
scalar OsgEarthNet.uav[8] utilizationSecMission 41736.49096647
scalar OsgEarthNet.uav[8] utilizationSecMaintenance 13277.785197255
scalar OsgEarthNet.uav[8] utilizationSecCharge 191877.94662705
scalar OsgEarthNet.uav[8] utilizationSecIdle 12307.776209221
scalar OsgEarthNet.uav[8] utilizationEnergyMission 192364.61288834
scalar OsgEarthNet.uav[8] utilizationEnergyMaintenance 61389.232341766
scalar OsgEarthNet.uav[8] utilizationEnergyCharge 251081.22338867
scalar OsgEarthNet.uav[8] utilizationEnergyOverdrawMission 0
scalar OsgEarthNet.uav[8] utilizationEnergyOverdrawMaintenance 0
scalar OsgEarthNet.uav[8] utilizationCountMissions 53
scalar OsgEarthNet.uav[8] utilizationCountManeuversMission 719
scalar OsgEarthNet.uav[8] utilizationCountManeuversMaintenance 106
scalar OsgEarthNet.uav[8] utilizationCountChargeState 53
scalar OsgEarthNet.uav[8] utilizationCountOverdrawnAfterMission 0
scalar OsgEarthNet.uav[8] utilizationCountIdleState 27
scalar OsgEarthNet.uav[8] utilizationFail 0
scalar OsgEarthNet.uav[8] simulationTime 259200
scalar OsgEarthNet.uav[9] utilizationSecMission 9719.8617291722
scalar OsgEarthNet.uav[9] utilizationSecMaintenance 3035.4726259094
scalar OsgEarthNet.uav[9] utilizationSecCharge 48420
scalar OsgEarthNet.uav[9] utilizationSecIdle 198024.66464492
scalar OsgEarthNet.uav[9] utilizationEnergyMission 45858.450408936
scalar OsgEarthNet.uav[9] utilizationEnergyMaintenance 14617.403255463
scalar OsgEarthNet.uav[9] utilizationEnergyCharge 60475.862304688
scalar OsgEarthNet.uav[9] utilizationEnergyOverdrawMission 0
scalar OsgEarthNet.uav[9] utilizationEnergyOverdrawMaintenance 0
scalar OsgEarthNet.uav[9] utilizationCountMissions 13
scalar OsgEarthNet.uav[9] utilizationCountManeuversMission 151
scalar OsgEarthNet.uav[9] utilizationCountManeuversMaintenance 26
scalar OsgEarthNet.uav[9] utilizationCountChargeState 13
scalar OsgEarthNet.uav[9] utilizationCountOverdrawnAfterMission 0
scalar OsgEarthNet.uav[9] utilizationCountIdleState 14
scalar OsgEarthNet.uav[9] utilizationFail 0
scalar OsgEarthNet.uav[9] simulationTime 259200
scalar OsgEarthNet.uav[10] utilizationSecMission 6753.941063851
scalar OsgEarthNet.uav[10] utilizationSecMaintenance 3073.880334496
scalar OsgEarthNet.uav[10] utilizationSecCharge 36960
scalar OsgEarthNet.uav[10] utilizationSecIdle 212412.17760165
scalar OsgEarthNet.uav[10] utilizationEnergyMission 32023.351905823
scalar OsgEarthNet.uav[10] utilizationEnergyMaintenance 15021.197055817
scalar OsgEarthNet.uav[10] utilizationEnergyCharge 47044.544921875
scalar OsgEarthNet.uav[10] utilizationEnergyOverdrawMission 0
scalar OsgEarthNet.uav[10] utilizationEnergyOverdrawMaintenance 0
scalar OsgEarthNet.uav[10] utilizationCountMissions 10
scalar OsgEarthNet.uav[10] utilizationCountManeuversMission 112
scalar OsgEarthNet.uav[10] utilizationCountManeuversMaintenance 20
scalar OsgEarthNet.uav[10] utilizationCountChargeState 10
scalar OsgEarthNet.uav[10] utilizationCountOverdrawnAfterMission 0
scalar OsgEarthNet.uav[10] utilizationCountIdleState 9
scalar OsgEarthNet.uav[10] utilizationFail 0
scalar OsgEarthNet.uav[10] simulationTime 259200
scalar OsgEarthNet.uav[11] utilizationSecMission 1979.962437992
scalar OsgEarthNet.uav[11] utilizationSecMaintenance 1008.1926551639
scalar OsgEarthNet.uav[11] utilizationSecCharge 11080
scalar OsgEarthNet.uav[11] utilizationSecIdle 245131.84390684
scalar OsgEarthNet.uav[11] utilizationEnergyMission 8914.8482208252
scalar OsgEarthNet.uav[11] utilizationEnergyMaintenance 4875.4886512756
scalar OsgEarthNet.uav[11] utilizationEnergyCharge 13790.338378906
scalar OsgEarthNet.uav[11] utilizationEnergyOverdrawMission 0
scalar OsgEarthNet.uav[11] utilizationEnergyOverdrawMaintenance 0
scalar OsgEarthNet.uav[11] utilizationCountMissions 3
scalar OsgEarthNet.uav[11] utilizationCountManeuversMission 30
scalar OsgEarthNet.uav[11] utilizationCountManeuversMaintenance 6
scalar OsgEarthNet.uav[11] utilizationCountChargeState 3
scalar OsgEarthNet.uav[11] utilizationCountOverdrawnAfterMission 0
scalar OsgEarthNet.uav[11] utilizationCountIdleState 4
scalar OsgEarthNet.uav[11] utilizationFail 0
scalar OsgEarthNet.uav[11] simulationTime 259200
scalar OsgEarthNet.uav[12] utilizationSecMission 42319.504179194
scalar OsgEarthNet.uav[12] utilizationSecMaintenance 13224.582701821
scalar OsgEarthNet.uav[12] utilizationSecCharge 191694.01329893
scalar OsgEarthNet.uav[12] utilizationSecIdle 11961.898820055
scalar OsgEarthNet.uav[12] utilizationEnergyMission 194293.98351288
scalar OsgEarthNet.uav[12] utilizationEnergyMaintenance 60952.855854034
scalar OsgEarthNet.uav[12] utilizationEnergyCharge 253497.23608398
scalar OsgEarthNet.uav[12] utilizationEnergyOverdrawMission 0
scalar OsgEarthNet.uav[12] utilizationEnergyOverdrawMaintenance 0
scalar OsgEarthNet.uav[12] utilizationCountMissions 54
scalar OsgEarthNet.uav[12] utilizationCountManeuversMission 729
scalar OsgEarthNet.uav[12] utilizationCountManeuversMaintenance 108
scalar OsgEarthNet.uav[12] utilizationCountChargeState 54
scalar OsgEarthNet.uav[12] utilizationCountOverdrawnAfterMission 0
scalar OsgEarthNet.uav[12] utilizationCountIdleState 23
scalar OsgEarthNet.uav[12] utilizationFail 0
scalar OsgEarthNet.uav[12] simulationTime 259200
scalar OsgEarthNet.uav[13] utilizationSecMission 9866.9510639683
scalar OsgEarthNet.uav[13] utilizationSecMaintenance 3010.5858064638
scalar OsgEarthNet.uav[13] utilizationSecCharge 48200
scalar OsgEarthNet.uav[13] utilizationSecIdle 198122.46212957
scalar OsgEarthNet.uav[13] utilizationEnergyMission 45229.46598053
scalar OsgEarthNet.uav[13] utilizationEnergyMaintenance 14809.395118713
scalar OsgEarthNet.uav[13] utilizationEnergyCharge 60038.850097656
scalar OsgEarthNet.uav[13] utilizationEnergyOverdrawMission 0
scalar OsgEarthNet.uav[13] utilizationEnergyOverdrawMaintenance 0
scalar OsgEarthNet.uav[13] utilizationCountMissions 13
scalar OsgEarthNet.uav[13] utilizationCountManeuversMission 149
scalar OsgEarthNet.uav[13] utilizationCountManeuversMaintenance 26
scalar OsgEarthNet.uav[13] utilizationCountChargeState 13
scalar OsgEarthNet.uav[13] utilizationCountOverdrawnAfterMission 0
scalar OsgEarthNet.uav[13] utilizationCountIdleState 14
scalar OsgEarthNet.uav[13] utilizationFail 0
scalar OsgEarthNet.uav[13] simulationTime 259200
scalar OsgEarthNet.uav[14] utilizationSecMission 1035.4014188692
scalar OsgEarthNet.uav[14] utilizationSecMaintenance 908.92013778478
scalar OsgEarthNet.uav[14] utilizationSecCharge 7490
scalar OsgEarthNet.uav[14] utilizationSecIdle 249765.67744335
scalar OsgEarthNet.uav[14] utilizationEnergyMission 4942.4941711426
scalar OsgEarthNet.uav[14] utilizationEnergyMaintenance 4414.7662582397
scalar OsgEarthNet.uav[14] utilizationEnergyCharge 9357.2548828125
scalar OsgEarthNet.uav[14] utilizationEnergyOverdrawMission 0
scalar OsgEarthNet.uav[14] utilizationEnergyOverdrawMaintenance 0
scalar OsgEarthNet.uav[14] utilizationCountMissions 2
scalar OsgEarthNet.uav[14] utilizationCountManeuversMission 16
scalar OsgEarthNet.uav[14] utilizationCountManeuversMaintenance 4
scalar OsgEarthNet.uav[14] utilizationCountChargeState 2
scalar OsgEarthNet.uav[14] utilizationCountOverdrawnAfterMission 0
scalar OsgEarthNet.uav[14] utilizationCountIdleState 3
scalar OsgEarthNet.uav[14] utilizationFail 0
scalar OsgEarthNet.uav[14] simulationTime 259200
scalar OsgEarthNet.uav[15] utilizationSecMission 13203.735023559
scalar OsgEarthNet.uav[15] utilizationSecMaintenance 4710.6343486924
scalar OsgEarthNet.uav[15] utilizationSecCharge 66820
scalar OsgEarthNet.uav[15] utilizationSecIdle 174465.62962775
scalar OsgEarthNet.uav[15] utilizationEnergyMission 61342.805282593
scalar OsgEarthNet.uav[15] utilizationEnergyMaintenance 22232.003787994
scalar OsgEarthNet.uav[15] utilizationEnergyCharge 83485.673339844
scalar OsgEarthNet.uav[15] utilizationEnergyOverdrawMission 0
scalar OsgEarthNet.uav[15] utilizationEnergyOverdrawMaintenance 0
scalar OsgEarthNet.uav[15] utilizationCountMissions 18
scalar OsgEarthNet.uav[15] utilizationCountManeuversMission 204
scalar OsgEarthNet.uav[15] utilizationCountManeuversMaintenance 36
scalar OsgEarthNet.uav[15] utilizationCountChargeState 18
scalar OsgEarthNet.uav[15] utilizationCountOverdrawnAfterMission 0
scalar OsgEarthNet.uav[15] utilizationCountIdleState 19
scalar OsgEarthNet.uav[15] utilizationFail 0
scalar OsgEarthNet.uav[15] simulationTime 259200
scalar OsgEarthNet.uav[16] utilizationSecMission 9044.1384301472
scalar OsgEarthNet.uav[16] utilizationSecMaintenance 2870.0525973418
scalar OsgEarthNet.uav[16] utilizationSecCharge 44810
scalar OsgEarthNet.uav[16] utilizationSecIdle 202475.80797251
scalar OsgEarthNet.uav[16] utilizationEnergyMission 41997.526054382
scalar OsgEarthNet.uav[16] utilizationEnergyMaintenance 13960.568996429
scalar OsgEarthNet.uav[16] utilizationEnergyCharge 55958.091308594
scalar OsgEarthNet.uav[16] utilizationEnergyOverdrawMission 0
scalar OsgEarthNet.uav[16] utilizationEnergyOverdrawMaintenance 0
scalar OsgEarthNet.uav[16] utilizationCountMissions 12
scalar OsgEarthNet.uav[16] utilizationCountManeuversMission 136
scalar OsgEarthNet.uav[16] utilizationCountManeuversMaintenance 24
scalar OsgEarthNet.uav[16] utilizationCountChargeState 12
scalar OsgEarthNet.uav[16] utilizationCountOverdrawnAfterMission 0
scalar OsgEarthNet.uav[16] utilizationCountIdleState 13
scalar OsgEarthNet.uav[16] utilizationFail 0
scalar OsgEarthNet.uav[16] simulationTime 259200
scalar OsgEarthNet.uav[17] utilizationSecMission 5296.0979263019
scalar OsgEarthNet.uav[17] utilizationSecMaintenance 2676.384906729
scalar OsgEarthNet.uav[17] utilizationSecCharge 29530
scalar OsgEarthNet.uav[17] utilizationSecIdle 221697.51616697
scalar OsgEarthNet.uav[17] utilizationEnergyMission 24628.126052856
scalar OsgEarthNet.uav[17] utilizationEnergyMaintenance 13110.159923553
scalar OsgEarthNet.uav[17] utilizationEnergyCharge 37738.282226562
scalar OsgEarthNet.uav[17] utilizationEnergyOverdrawMission 0
scalar OsgEarthNet.uav[17] utilizationEnergyOverdrawMaintenance 0
scalar OsgEarthNet.uav[17] utilizationCountMissions 8
scalar OsgEarthNet.uav[17] utilizationCountManeuversMission 89
scalar OsgEarthNet.uav[17] utilizationCountManeuversMaintenance 16
scalar OsgEarthNet.uav[17] utilizationCountChargeState 8
scalar OsgEarthNet.uav[17] utilizationCountOverdrawnAfterMission 0
scalar OsgEarthNet.uav[17] utilizationCountIdleState 6
scalar OsgEarthNet.uav[17] utilizationFail 0
scalar OsgEarthNet.uav[17] simulationTime 259200
scalar OsgEarthNet.uav[18] utilizationSecMission 3240.5947954802
scalar OsgEarthNet.uav[18] utilizationSecMaintenance 1771.2216122843
scalar OsgEarthNet.uav[18] utilizationSecCharge 18770
scalar OsgEarthNet.uav[18] utilizationSecIdle 235418.18259224
scalar OsgEarthNet.uav[18] utilizationEnergyMission 15281.068954468
scalar OsgEarthNet.uav[18] utilizationEnergyMaintenance 8314.2169265747
scalar OsgEarthNet.uav[18] utilizationEnergyCharge 23595.285644531
scalar OsgEarthNet.uav[18] utilizationEnergyOverdrawMission 0
scalar OsgEarthNet.uav[18] utilizationEnergyOverdrawMaintenance 0
scalar OsgEarthNet.uav[18] utilizationCountMissions 5
scalar OsgEarthNet.uav[18] utilizationCountManeuversMission 52
scalar OsgEarthNet.uav[18] utilizationCountManeuversMaintenance 10
scalar OsgEarthNet.uav[18] utilizationCountChargeState 5
scalar OsgEarthNet.uav[18] utilizationCountOverdrawnAfterMission 0
scalar OsgEarthNet.uav[18] utilizationCountIdleState 6
scalar OsgEarthNet.uav[18] utilizationFail 0
scalar OsgEarthNet.uav[18] simulationTime 259200
scalar OsgEarthNet.uav[19] utilizationSecMission 6831.2587735719
scalar OsgEarthNet.uav[19] utilizationSecMaintenance 3058.079899898
scalar OsgEarthNet.uav[19] utilizationSecCharge 36590
scalar OsgEarthNet.uav[19] utilizationSecIdle 212720.66032653
scalar OsgEarthNet.uav[19] utilizationEnergyMission 31329.358177185
scalar OsgEarthNet.uav[19] utilizationEnergyMaintenance 14419.414512634
scalar OsgEarthNet.uav[19] utilizationEnergyCharge 45669.302246094
scalar OsgEarthNet.uav[19] utilizationEnergyOverdrawMission 0
scalar OsgEarthNet.uav[19] utilizationEnergyOverdrawMaintenance 0
scalar OsgEarthNet.uav[19] utilizationCountMissions 10
scalar OsgEarthNet.uav[19] utilizationCountManeuversMission 112
scalar OsgEarthNet.uav[19] utilizationCountManeuversMaintenance 20
scalar OsgEarthNet.uav[19] utilizationCountChargeState 10
scalar OsgEarthNet.uav[19] utilizationCountOverdrawnAfterMission 0
scalar OsgEarthNet.uav[19] utilizationCountIdleState 10
scalar OsgEarthNet.uav[19] utilizationFail 0
scalar OsgEarthNet.uav[19] simulationTime 259200
scalar OsgEarthNet.uav[20] utilizationSecMission 9064.9792803512
scalar OsgEarthNet.uav[20] utilizationSecMaintenance 2494.1986359855
scalar OsgEarthNet.uav[20] utilizationSecCharge 40160
scalar OsgEarthNet.uav[20] utilizationSecIdle 207480.82108366
scalar OsgEarthNet.uav[20] utilizationEnergyMission 41557.094924927
scalar OsgEarthNet.uav[20] utilizationEnergyMaintenance 12142.386381418
scalar OsgEarthNet.uav[20] utilizationEnergyCharge 49671.174804688
scalar OsgEarthNet.uav[20] utilizationEnergyOverdrawMission 0
scalar OsgEarthNet.uav[20] utilizationEnergyOverdrawMaintenance 0
scalar OsgEarthNet.uav[20] utilizationCountMissions 11
scalar OsgEarthNet.uav[20] utilizationCountManeuversMission 138
scalar OsgEarthNet.uav[20] utilizationCountManeuversMaintenance 23
scalar OsgEarthNet.uav[20] utilizationCountChargeState 11
scalar OsgEarthNet.uav[20] utilizationCountOverdrawnAfterMission 0
scalar OsgEarthNet.uav[20] utilizationCountIdleState 12
scalar OsgEarthNet.uav[20] utilizationFail 0
scalar OsgEarthNet.uav[20] simulationTime 259200
scalar OsgEarthNet.uav[21] utilizationSecMission 5437.1050326512
scalar OsgEarthNet.uav[21] utilizationSecMaintenance 3512.1477292178
scalar OsgEarthNet.uav[21] utilizationSecCharge 33480
scalar OsgEarthNet.uav[21] utilizationSecIdle 216770.74623813
scalar OsgEarthNet.uav[21] utilizationEnergyMission 25737.932952881
scalar OsgEarthNet.uav[21] utilizationEnergyMaintenance 16565.858909607
scalar OsgEarthNet.uav[21] utilizationEnergyCharge 42303.794921875
scalar OsgEarthNet.uav[21] utilizationEnergyOverdrawMission 0
scalar OsgEarthNet.uav[21] utilizationEnergyOverdrawMaintenance 0
scalar OsgEarthNet.uav[21] utilizationCountMissions 9
scalar OsgEarthNet.uav[21] utilizationCountManeuversMission 91
scalar OsgEarthNet.uav[21] utilizationCountManeuversMaintenance 18
scalar OsgEarthNet.uav[21] utilizationCountChargeState 9
scalar OsgEarthNet.uav[21] utilizationCountOverdrawnAfterMission 0
scalar OsgEarthNet.uav[21] utilizationCountIdleState 9
scalar OsgEarthNet.uav[21] utilizationFail 0
scalar OsgEarthNet.uav[21] simulationTime 259200
scalar OsgEarthNet.uav[22] utilizationSecMission 42034.374908892
scalar OsgEarthNet.uav[22] utilizationSecMaintenance 13605.248342413
scalar OsgEarthNet.uav[22] utilizationSecCharge 192708.59684465
scalar OsgEarthNet.uav[22] utilizationSecIdle 10851.778904046
scalar OsgEarthNet.uav[22] utilizationEnergyMission 194745.76657104
scalar OsgEarthNet.uav[22] utilizationEnergyMaintenance 63822.61415863
scalar OsgEarthNet.uav[22] utilizationEnergyCharge 255155.2253418
scalar OsgEarthNet.uav[22] utilizationEnergyOverdrawMission 0
scalar OsgEarthNet.uav[22] utilizationEnergyOverdrawMaintenance 0
scalar OsgEarthNet.uav[22] utilizationCountMissions 54
scalar OsgEarthNet.uav[22] utilizationCountManeuversMission 727
scalar OsgEarthNet.uav[22] utilizationCountManeuversMaintenance 108
scalar OsgEarthNet.uav[22] utilizationCountChargeState 54
scalar OsgEarthNet.uav[22] utilizationCountOverdrawnAfterMission 0
scalar OsgEarthNet.uav[22] utilizationCountIdleState 20
scalar OsgEarthNet.uav[22] utilizationFail 0
scalar OsgEarthNet.uav[22] simulationTime 259200
scalar OsgEarthNet.uav[23] utilizationSecMission 11505.868424983
scalar OsgEarthNet.uav[23] utilizationSecMaintenance 3161.3862539924
scalar OsgEarthNet.uav[23] utilizationSecCharge 52630.744321024
scalar OsgEarthNet.uav[23] utilizationSecIdle 191902
scalar OsgEarthNet.uav[23] utilizationEnergyMission 53062.075340622
scalar OsgEarthNet.uav[23] utilizationEnergyMaintenance 15456.129810333
scalar OsgEarthNet.uav[23] utilizationEnergyCharge 65897.203125
scalar OsgEarthNet.uav[23] utilizationEnergyOverdrawMission 0
scalar OsgEarthNet.uav[23] utilizationEnergyOverdrawMaintenance 0
scalar OsgEarthNet.uav[23] utilizationCountMissions 15
scalar OsgEarthNet.uav[23] utilizationCountManeuversMission 176
scalar OsgEarthNet.uav[23] utilizationCountManeuversMaintenance 29
scalar OsgEarthNet.uav[23] utilizationCountChargeState 15
scalar OsgEarthNet.uav[23] utilizationCountOverdrawnAfterMission 0
scalar OsgEarthNet.uav[23] utilizationCountIdleState 15
scalar OsgEarthNet.uav[23] utilizationFail 0
scalar OsgEarthNet.uav[23] simulationTime 259200
scalar OsgEarthNet.uav[24] utilizationSecMission 2141.9668622314
scalar OsgEarthNet.uav[24] utilizationSecMaintenance 916.96651144049
scalar OsgEarthNet.uav[24] utilizationSecCharge 11500
scalar OsgEarthNet.uav[24] utilizationSecIdle 244641.06562633
scalar OsgEarthNet.uav[24] utilizationEnergyMission 9926.739944458
scalar OsgEarthNet.uav[24] utilizationEnergyMaintenance 4607.2863311768
scalar OsgEarthNet.uav[24] utilizationEnergyCharge 14534.02734375
scalar OsgEarthNet.uav[24] utilizationEnergyOverdrawMission 0
scalar OsgEarthNet.uav[24] utilizationEnergyOverdrawMaintenance 0
scalar OsgEarthNet.uav[24] utilizationCountMissions 3
scalar OsgEarthNet.uav[24] utilizationCountManeuversMission 34
scalar OsgEarthNet.uav[24] utilizationCountManeuversMaintenance 6
scalar OsgEarthNet.uav[24] utilizationCountChargeState 3
scalar OsgEarthNet.uav[24] utilizationCountOverdrawnAfterMission 0
scalar OsgEarthNet.uav[24] utilizationCountIdleState 4
scalar OsgEarthNet.uav[24] utilizationFail 0
scalar OsgEarthNet.uav[24] simulationTime 259200
scalar OsgEarthNet.uav[25] utilizationSecMission 41850.560773977
scalar OsgEarthNet.uav[25] utilizationSecMaintenance 13463.228120329
scalar OsgEarthNet.uav[25] utilizationSecCharge 191783.68630016
scalar OsgEarthNet.uav[25] utilizationSecIdle 12102.523805535
scalar OsgEarthNet.uav[25] utilizationEnergyMission 194446.5655098
scalar OsgEarthNet.uav[25] utilizationEnergyMaintenance 62228.641147614
scalar OsgEarthNet.uav[25] utilizationEnergyCharge 251305.13037109
scalar OsgEarthNet.uav[25] utilizationEnergyOverdrawMission 0
scalar OsgEarthNet.uav[25] utilizationEnergyOverdrawMaintenance 0
scalar OsgEarthNet.uav[25] utilizationCountMissions 54
scalar OsgEarthNet.uav[25] utilizationCountManeuversMission 723
scalar OsgEarthNet.uav[25] utilizationCountManeuversMaintenance 108
scalar OsgEarthNet.uav[25] utilizationCountChargeState 54
scalar OsgEarthNet.uav[25] utilizationCountOverdrawnAfterMission 0
scalar OsgEarthNet.uav[25] utilizationCountIdleState 24
scalar OsgEarthNet.uav[25] utilizationFail 0
scalar OsgEarthNet.uav[25] simulationTime 259200
scalar OsgEarthNet.uav[26] utilizationSecMission 2715.0707589031
scalar OsgEarthNet.uav[26] utilizationSecMaintenance 1354.834868211
scalar OsgEarthNet.uav[26] utilizationSecCharge 14910
scalar OsgEarthNet.uav[26] utilizationSecIdle 240220.09337289
scalar OsgEarthNet.uav[26] utilizationEnergyMission 12277.628753662
scalar OsgEarthNet.uav[26] utilizationEnergyMaintenance 6315.0858230591
scalar OsgEarthNet.uav[26] utilizationEnergyCharge 18592.709472656
scalar OsgEarthNet.uav[26] utilizationEnergyOverdrawMission 0
scalar OsgEarthNet.uav[26] utilizationEnergyOverdrawMaintenance 0
scalar OsgEarthNet.uav[26] utilizationCountMissions 4
scalar OsgEarthNet.uav[26] utilizationCountManeuversMission 43
scalar OsgEarthNet.uav[26] utilizationCountManeuversMaintenance 8
scalar OsgEarthNet.uav[26] utilizationCountChargeState 4
scalar OsgEarthNet.uav[26] utilizationCountOverdrawnAfterMission 0
scalar OsgEarthNet.uav[26] utilizationCountIdleState 5
scalar OsgEarthNet.uav[26] utilizationFail 0
scalar OsgEarthNet.uav[26] simulationTime 259200
scalar OsgEarthNet.uav[27] utilizationSecMission 5891.9606703818
scalar OsgEarthNet.uav[27] utilizationSecMaintenance 3101.6472454734
scalar OsgEarthNet.uav[27] utilizationSecCharge 33334.391084145
scalar OsgEarthNet.uav[27] utilizationSecIdle 216872
scalar OsgEarthNet.uav[27] utilizationEnergyMission 27041.146759033
scalar OsgEarthNet.uav[27] utilizationEnergyMaintenance 15089.191967011
scalar OsgEarthNet.uav[27] utilizationEnergyCharge 42097.921386719
scalar OsgEarthNet.uav[27] utilizationEnergyOverdrawMission 0
scalar OsgEarthNet.uav[27] utilizationEnergyOverdrawMaintenance 0
scalar OsgEarthNet.uav[27] utilizationCountMissions 9
scalar OsgEarthNet.uav[27] utilizationCountManeuversMission 95
scalar OsgEarthNet.uav[27] utilizationCountManeuversMaintenance 17
scalar OsgEarthNet.uav[27] utilizationCountChargeState 9
scalar OsgEarthNet.uav[27] utilizationCountOverdrawnAfterMission 0
scalar OsgEarthNet.uav[27] utilizationCountIdleState 9
scalar OsgEarthNet.uav[27] utilizationFail 0
scalar OsgEarthNet.uav[27] simulationTime 259200
scalar OsgEarthNet.uav[28] utilizationSecMission 18626.558847773
scalar OsgEarthNet.uav[28] utilizationSecMaintenance 8177.1379293704
scalar OsgEarthNet.uav[28] utilizationSecCharge 100600
scalar OsgEarthNet.uav[28] utilizationSecIdle 131796.30222286
scalar OsgEarthNet.uav[28] utilizationEnergyMission 87273.389938355
scalar OsgEarthNet.uav[28] utilizationEnergyMaintenance 39146.698703766
scalar OsgEarthNet.uav[28] utilizationEnergyCharge 126420.08447266
scalar OsgEarthNet.uav[28] utilizationEnergyOverdrawMission 0
scalar OsgEarthNet.uav[28] utilizationEnergyOverdrawMaintenance 0
scalar OsgEarthNet.uav[28] utilizationCountMissions 27
scalar OsgEarthNet.uav[28] utilizationCountManeuversMission 305
scalar OsgEarthNet.uav[28] utilizationCountManeuversMaintenance 54
scalar OsgEarthNet.uav[28] utilizationCountChargeState 27
scalar OsgEarthNet.uav[28] utilizationCountOverdrawnAfterMission 0
scalar OsgEarthNet.uav[28] utilizationCountIdleState 25
scalar OsgEarthNet.uav[28] utilizationFail 0
scalar OsgEarthNet.uav[28] simulationTime 259200
scalar OsgEarthNet.uav[29] utilizationSecMission 9075.3997054533
scalar OsgEarthNet.uav[29] utilizationSecMaintenance 2663.3048465347
scalar OsgEarthNet.uav[29] utilizationSecCharge 44630
scalar OsgEarthNet.uav[29] utilizationSecIdle 202831.29444801
scalar OsgEarthNet.uav[29] utilizationEnergyMission 42366.208953857
scalar OsgEarthNet.uav[29] utilizationEnergyMaintenance 13173.380783081
scalar OsgEarthNet.uav[29] utilizationEnergyCharge 55539.591308594
scalar OsgEarthNet.uav[29] utilizationEnergyOverdrawMission 0
scalar OsgEarthNet.uav[29] utilizationEnergyOverdrawMaintenance 0
scalar OsgEarthNet.uav[29] utilizationCountMissions 12
scalar OsgEarthNet.uav[29] utilizationCountManeuversMission 139
scalar OsgEarthNet.uav[29] utilizationCountManeuversMaintenance 24
scalar OsgEarthNet.uav[29] utilizationCountChargeState 12
scalar OsgEarthNet.uav[29] utilizationCountOverdrawnAfterMission 0
scalar OsgEarthNet.uav[29] utilizationCountIdleState 13
scalar OsgEarthNet.uav[29] utilizationFail 0
scalar OsgEarthNet.uav[29] simulationTime 259200
scalar OsgEarthNet.uav[30] utilizationSecMission 6317.6539796407
scalar OsgEarthNet.uav[30] utilizationSecMaintenance 2461.2244479729
scalar OsgEarthNet.uav[30] utilizationSecCharge 33200
scalar OsgEarthNet.uav[30] utilizationSecIdle 217221.12057239
scalar OsgEarthNet.uav[30] utilizationEnergyMission 29601.281455994
scalar OsgEarthNet.uav[30] utilizationEnergyMaintenance 11663.400749207
scalar OsgEarthNet.uav[30] utilizationEnergyCharge 41264.678710938
scalar OsgEarthNet.uav[30] utilizationEnergyOverdrawMission 0
scalar OsgEarthNet.uav[30] utilizationEnergyOverdrawMaintenance 0
scalar OsgEarthNet.uav[30] utilizationCountMissions 9
scalar OsgEarthNet.uav[30] utilizationCountManeuversMission 96
scalar OsgEarthNet.uav[30] utilizationCountManeuversMaintenance 18
scalar OsgEarthNet.uav[30] utilizationCountChargeState 9
scalar OsgEarthNet.uav[30] utilizationCountOverdrawnAfterMission 0
scalar OsgEarthNet.uav[30] utilizationCountIdleState 10
scalar OsgEarthNet.uav[30] utilizationFail 0
scalar OsgEarthNet.uav[30] simulationTime 259200
scalar OsgEarthNet.uav[31] utilizationSecMission 18790.723892824
scalar OsgEarthNet.uav[31] utilizationSecMaintenance 7018.6563136136
scalar OsgEarthNet.uav[31] utilizationSecCharge 93089.78062034
scalar OsgEarthNet.uav[31] utilizationSecIdle 140300.83817322
scalar OsgEarthNet.uav[31] utilizationEnergyMission 86446.15222168
scalar OsgEarthNet.uav[31] utilizationEnergyMaintenance 33386.829593658
scalar OsgEarthNet.uav[31] utilizationEnergyCharge 117082.98706055
scalar OsgEarthNet.uav[31] utilizationEnergyOverdrawMission 0
scalar OsgEarthNet.uav[31] utilizationEnergyOverdrawMaintenance 0
scalar OsgEarthNet.uav[31] utilizationCountMissions 26
scalar OsgEarthNet.uav[31] utilizationCountManeuversMission 292
scalar OsgEarthNet.uav[31] utilizationCountManeuversMaintenance 52
scalar OsgEarthNet.uav[31] utilizationCountChargeState 26
scalar OsgEarthNet.uav[31] utilizationCountOverdrawnAfterMission 0
scalar OsgEarthNet.uav[31] utilizationCountIdleState 25
scalar OsgEarthNet.uav[31] utilizationFail 0
scalar OsgEarthNet.uav[31] simulationTime 259200
scalar OsgEarthNet.uav[32] utilizationSecMission 3337.2502282194
scalar OsgEarthNet.uav[32] utilizationSecMaintenance 1722.0224082766
scalar OsgEarthNet.uav[32] utilizationSecCharge 18930
scalar OsgEarthNet.uav[32] utilizationSecIdle 235210.7263635
scalar OsgEarthNet.uav[32] utilizationEnergyMission 15533.894081116
scalar OsgEarthNet.uav[32] utilizationEnergyMaintenance 8165.3931846619
scalar OsgEarthNet.uav[32] utilizationEnergyCharge 23699.280273438
scalar OsgEarthNet.uav[32] utilizationEnergyOverdrawMission 0
scalar OsgEarthNet.uav[32] utilizationEnergyOverdrawMaintenance 0
scalar OsgEarthNet.uav[32] utilizationCountMissions 5
scalar OsgEarthNet.uav[32] utilizationCountManeuversMission 53
scalar OsgEarthNet.uav[32] utilizationCountManeuversMaintenance 10
scalar OsgEarthNet.uav[32] utilizationCountChargeState 5
scalar OsgEarthNet.uav[32] utilizationCountOverdrawnAfterMission 0
scalar OsgEarthNet.uav[32] utilizationCountIdleState 6
scalar OsgEarthNet.uav[32] utilizationFail 0
scalar OsgEarthNet.uav[32] simulationTime 259200
scalar OsgEarthNet.uav[33] utilizationSecMission 11226.02379191
scalar OsgEarthNet.uav[33] utilizationSecMaintenance 3456.8663078031
scalar OsgEarthNet.uav[33] utilizationSecCharge 55150
scalar OsgEarthNet.uav[33] utilizationSecIdle 189367.10890029
scalar OsgEarthNet.uav[33] utilizationEnergyMission 51857.185043335
scalar OsgEarthNet.uav[33] utilizationEnergyMaintenance 16923.334247589
scalar OsgEarthNet.uav[33] utilizationEnergyCharge 68498.399902344
scalar OsgEarthNet.uav[33] utilizationEnergyOverdrawMission 0
scalar OsgEarthNet.uav[33] utilizationEnergyOverdrawMaintenance 0
scalar OsgEarthNet.uav[33] utilizationCountMissions 15
scalar OsgEarthNet.uav[33] utilizationCountManeuversMission 171
scalar OsgEarthNet.uav[33] utilizationCountManeuversMaintenance 30
scalar OsgEarthNet.uav[33] utilizationCountChargeState 15
scalar OsgEarthNet.uav[33] utilizationCountOverdrawnAfterMission 0
scalar OsgEarthNet.uav[33] utilizationCountIdleState 16
scalar OsgEarthNet.uav[33] utilizationFail 0
scalar OsgEarthNet.uav[33] simulationTime 259200
scalar OsgEarthNet.uav[34] utilizationSecMission 2054.3133838682
scalar OsgEarthNet.uav[34] utilizationSecMaintenance 955.61715704985
scalar OsgEarthNet.uav[34] utilizationSecCharge 11370
scalar OsgEarthNet.uav[34] utilizationSecIdle 244820.06845908
scalar OsgEarthNet.uav[34] utilizationEnergyMission 9484.9002685547
scalar OsgEarthNet.uav[34] utilizationEnergyMaintenance 4772.3393592834
scalar OsgEarthNet.uav[34] utilizationEnergyCharge 14257.238769531
scalar OsgEarthNet.uav[34] utilizationEnergyOverdrawMission 0
scalar OsgEarthNet.uav[34] utilizationEnergyOverdrawMaintenance 0
scalar OsgEarthNet.uav[34] utilizationCountMissions 3
scalar OsgEarthNet.uav[34] utilizationCountManeuversMission 32
scalar OsgEarthNet.uav[34] utilizationCountManeuversMaintenance 6
scalar OsgEarthNet.uav[34] utilizationCountChargeState 3
scalar OsgEarthNet.uav[34] utilizationCountOverdrawnAfterMission 0
scalar OsgEarthNet.uav[34] utilizationCountIdleState 4
scalar OsgEarthNet.uav[34] utilizationFail 0
scalar OsgEarthNet.uav[34] simulationTime 259200
scalar OsgEarthNet.uav[35] utilizationSecMission 42933.293178238
scalar OsgEarthNet.uav[35] utilizationSecMaintenance 13293.105351438
scalar OsgEarthNet.uav[35] utilizationSecCharge 194142.90002868
scalar OsgEarthNet.uav[35] utilizationSecIdle 8830.7004416429
scalar OsgEarthNet.uav[35] utilizationEnergyMission 198114.75298691
scalar OsgEarthNet.uav[35] utilizationEnergyMaintenance 60442.381793976
scalar OsgEarthNet.uav[35] utilizationEnergyCharge 254639.71392822
scalar OsgEarthNet.uav[35] utilizationEnergyOverdrawMission 0
scalar OsgEarthNet.uav[35] utilizationEnergyOverdrawMaintenance 0
scalar OsgEarthNet.uav[35] utilizationCountMissions 55
scalar OsgEarthNet.uav[35] utilizationCountManeuversMission 736
scalar OsgEarthNet.uav[35] utilizationCountManeuversMaintenance 110
scalar OsgEarthNet.uav[35] utilizationCountChargeState 55
scalar OsgEarthNet.uav[35] utilizationCountOverdrawnAfterMission 0
scalar OsgEarthNet.uav[35] utilizationCountIdleState 23
scalar OsgEarthNet.uav[35] utilizationFail 0
scalar OsgEarthNet.uav[35] simulationTime 259200
scalar OsgEarthNet.uav[36] utilizationSecMission 9804.7635827275
scalar OsgEarthNet.uav[36] utilizationSecMaintenance 3140.6574330302
scalar OsgEarthNet.uav[36] utilizationSecCharge 48010
scalar OsgEarthNet.uav[36] utilizationSecIdle 198244.57798424
scalar OsgEarthNet.uav[36] utilizationEnergyMission 44551.390205383
scalar OsgEarthNet.uav[36] utilizationEnergyMaintenance 15631.695289696
scalar OsgEarthNet.uav[36] utilizationEnergyCharge 59741.452636719
scalar OsgEarthNet.uav[36] utilizationEnergyOverdrawMission 0
scalar OsgEarthNet.uav[36] utilizationEnergyOverdrawMaintenance 0
scalar OsgEarthNet.uav[36] utilizationCountMissions 13
scalar OsgEarthNet.uav[36] utilizationCountManeuversMission 148
scalar OsgEarthNet.uav[36] utilizationCountManeuversMaintenance 27
scalar OsgEarthNet.uav[36] utilizationCountChargeState 13
scalar OsgEarthNet.uav[36] utilizationCountOverdrawnAfterMission 0
scalar OsgEarthNet.uav[36] utilizationCountIdleState 14
scalar OsgEarthNet.uav[36] utilizationFail 0
scalar OsgEarthNet.uav[36] simulationTime 259200
scalar OsgEarthNet.uav[37] utilizationSecMission 7836.3374973734
scalar OsgEarthNet.uav[37] utilizationSecMaintenance 4301.7931186715
scalar OsgEarthNet.uav[37] utilizationSecCharge 44770
scalar OsgEarthNet.uav[37] utilizationSecIdle 202291.86838396
scalar OsgEarthNet.uav[37] utilizationEnergyMission 35839.06552887
scalar OsgEarthNet.uav[37] utilizationEnergyMaintenance 20502.973384857
scalar OsgEarthNet.uav[37] utilizationEnergyCharge 56342.043945312
scalar OsgEarthNet.uav[37] utilizationEnergyOverdrawMission 0
scalar OsgEarthNet.uav[37] utilizationEnergyOverdrawMaintenance 0
scalar OsgEarthNet.uav[37] utilizationCountMissions 12
scalar OsgEarthNet.uav[37] utilizationCountManeuversMission 130
scalar OsgEarthNet.uav[37] utilizationCountManeuversMaintenance 24
scalar OsgEarthNet.uav[37] utilizationCountChargeState 12
scalar OsgEarthNet.uav[37] utilizationCountOverdrawnAfterMission 0
scalar OsgEarthNet.uav[37] utilizationCountIdleState 12
scalar OsgEarthNet.uav[37] utilizationFail 0
scalar OsgEarthNet.uav[37] simulationTime 259200
scalar OsgEarthNet.uav[38] utilizationSecMission 14832.955417637
scalar OsgEarthNet.uav[38] utilizationSecMaintenance 4879.9236036266
scalar OsgEarthNet.uav[38] utilizationSecCharge 72950
scalar OsgEarthNet.uav[38] utilizationSecIdle 166537.11997874
scalar OsgEarthNet.uav[38] utilizationEnergyMission 67382.789039612
scalar OsgEarthNet.uav[38] utilizationEnergyMaintenance 23150.821456909
scalar OsgEarthNet.uav[38] utilizationEnergyCharge 90274.763183594
scalar OsgEarthNet.uav[38] utilizationEnergyOverdrawMission 0
scalar OsgEarthNet.uav[38] utilizationEnergyOverdrawMaintenance 0
scalar OsgEarthNet.uav[38] utilizationCountMissions 20
scalar OsgEarthNet.uav[38] utilizationCountManeuversMission 226
scalar OsgEarthNet.uav[38] utilizationCountManeuversMaintenance 40
scalar OsgEarthNet.uav[38] utilizationCountChargeState 20
scalar OsgEarthNet.uav[38] utilizationCountOverdrawnAfterMission 0
scalar OsgEarthNet.uav[38] utilizationCountIdleState 21
scalar OsgEarthNet.uav[38] utilizationFail 0
scalar OsgEarthNet.uav[38] simulationTime 259200
scalar OsgEarthNet.uav[39] utilizationSecMission 9752.9965265887
scalar OsgEarthNet.uav[39] utilizationSecMaintenance 2921.6458259763
scalar OsgEarthNet.uav[39] utilizationSecCharge 46617.058588208
scalar OsgEarthNet.uav[39] utilizationSecIdle 199908.29805923
scalar OsgEarthNet.uav[39] utilizationEnergyMission 45329.855834961
scalar OsgEarthNet.uav[39] utilizationEnergyMaintenance 14198.988502502
scalar OsgEarthNet.uav[39] utilizationEnergyCharge 58963.684326172
scalar OsgEarthNet.uav[39] utilizationEnergyOverdrawMission 0
scalar OsgEarthNet.uav[39] utilizationEnergyOverdrawMaintenance 0
scalar OsgEarthNet.uav[39] utilizationCountMissions 13
scalar OsgEarthNet.uav[39] utilizationCountManeuversMission 148
scalar OsgEarthNet.uav[39] utilizationCountManeuversMaintenance 26
scalar OsgEarthNet.uav[39] utilizationCountChargeState 13
scalar OsgEarthNet.uav[39] utilizationCountOverdrawnAfterMission 0
scalar OsgEarthNet.uav[39] utilizationCountIdleState 13
scalar OsgEarthNet.uav[39] utilizationFail 0
scalar OsgEarthNet.uav[39] simulationTime 259200
scalar OsgEarthNet.uav[40] utilizationSecMission 8314.774552873
scalar OsgEarthNet.uav[40] utilizationSecMaintenance 2543.3731985687
scalar OsgEarthNet.uav[40] utilizationSecCharge 40159.777866748
scalar OsgEarthNet.uav[40] utilizationSecIdle 208182.07338181
scalar OsgEarthNet.uav[40] utilizationEnergyMission 38695.399520874
scalar OsgEarthNet.uav[40] utilizationEnergyMaintenance 12479.694595337
scalar OsgEarthNet.uav[40] utilizationEnergyCharge 50999.364746094
scalar OsgEarthNet.uav[40] utilizationEnergyOverdrawMission 0
scalar OsgEarthNet.uav[40] utilizationEnergyOverdrawMaintenance 0
scalar OsgEarthNet.uav[40] utilizationCountMissions 11
scalar OsgEarthNet.uav[40] utilizationCountManeuversMission 127
scalar OsgEarthNet.uav[40] utilizationCountManeuversMaintenance 22
scalar OsgEarthNet.uav[40] utilizationCountChargeState 11
scalar OsgEarthNet.uav[40] utilizationCountOverdrawnAfterMission 0
scalar OsgEarthNet.uav[40] utilizationCountIdleState 11
scalar OsgEarthNet.uav[40] utilizationFail 0
scalar OsgEarthNet.uav[40] simulationTime 259200
scalar OsgEarthNet.uav[41] utilizationSecMission 7610.5332385798
scalar OsgEarthNet.uav[41] utilizationSecMaintenance 3412.6298125189
scalar OsgEarthNet.uav[41] utilizationSecCharge 40710
scalar OsgEarthNet.uav[41] utilizationSecIdle 207466.8359489
scalar OsgEarthNet.uav[41] utilizationEnergyMission 34704.802467346
scalar OsgEarthNet.uav[41] utilizationEnergyMaintenance 16357.68320562
scalar OsgEarthNet.uav[41] utilizationEnergyCharge 50869.665039062
scalar OsgEarthNet.uav[41] utilizationEnergyOverdrawMission 0
scalar OsgEarthNet.uav[41] utilizationEnergyOverdrawMaintenance 0
scalar OsgEarthNet.uav[41] utilizationCountMissions 11
scalar OsgEarthNet.uav[41] utilizationCountManeuversMission 129
scalar OsgEarthNet.uav[41] utilizationCountManeuversMaintenance 23
scalar OsgEarthNet.uav[41] utilizationCountChargeState 11
scalar OsgEarthNet.uav[41] utilizationCountOverdrawnAfterMission 0
scalar OsgEarthNet.uav[41] utilizationCountIdleState 11
scalar OsgEarthNet.uav[41] utilizationFail 0
scalar OsgEarthNet.uav[41] simulationTime 259200
scalar OsgEarthNet.uav[42] utilizationSecMission 8280.439807455
scalar OsgEarthNet.uav[42] utilizationSecMaintenance 4182.8432584642
scalar OsgEarthNet.uav[42] utilizationSecCharge 45480
scalar OsgEarthNet.uav[42] utilizationSecIdle 201256.71593408
scalar OsgEarthNet.uav[42] utilizationEnergyMission 37979.323001862
scalar OsgEarthNet.uav[42] utilizationEnergyMaintenance 19570.212081909
scalar OsgEarthNet.uav[42] utilizationEnergyCharge 57549.541992188
scalar OsgEarthNet.uav[42] utilizationEnergyOverdrawMission 0
scalar OsgEarthNet.uav[42] utilizationEnergyOverdrawMaintenance 0
scalar OsgEarthNet.uav[42] utilizationCountMissions 12
scalar OsgEarthNet.uav[42] utilizationCountManeuversMission 138
scalar OsgEarthNet.uav[42] utilizationCountManeuversMaintenance 24
scalar OsgEarthNet.uav[42] utilizationCountChargeState 12
scalar OsgEarthNet.uav[42] utilizationCountOverdrawnAfterMission 0
scalar OsgEarthNet.uav[42] utilizationCountIdleState 12
scalar OsgEarthNet.uav[42] utilizationFail 0
scalar OsgEarthNet.uav[42] simulationTime 259200
scalar OsgEarthNet.uav[43] utilizationSecMission 8337.3783089077
scalar OsgEarthNet.uav[43] utilizationSecMaintenance 3658.6904274129
scalar OsgEarthNet.uav[43] utilizationSecCharge 44960
scalar OsgEarthNet.uav[43] utilizationSecIdle 202243.93026368
scalar OsgEarthNet.uav[43] utilizationEnergyMission 38631.609107971
scalar OsgEarthNet.uav[43] utilizationEnergyMaintenance 17683.384212494
scalar OsgEarthNet.uav[43] utilizationEnergyCharge 56314.997070312
scalar OsgEarthNet.uav[43] utilizationEnergyOverdrawMission 0
scalar OsgEarthNet.uav[43] utilizationEnergyOverdrawMaintenance 0
scalar OsgEarthNet.uav[43] utilizationCountMissions 12
scalar OsgEarthNet.uav[43] utilizationCountManeuversMission 133
scalar OsgEarthNet.uav[43] utilizationCountManeuversMaintenance 24
scalar OsgEarthNet.uav[43] utilizationCountChargeState 12
scalar OsgEarthNet.uav[43] utilizationCountOverdrawnAfterMission 0
scalar OsgEarthNet.uav[43] utilizationCountIdleState 13
scalar OsgEarthNet.uav[43] utilizationFail 0
scalar OsgEarthNet.uav[43] simulationTime 259200
scalar OsgEarthNet.uav[44] utilizationSecMission 3253.2619407924
scalar OsgEarthNet.uav[44] utilizationSecMaintenance 1663.9563765818
scalar OsgEarthNet.uav[44] utilizationSecCharge 17790
scalar OsgEarthNet.uav[44] utilizationSecIdle 236492.78068263
scalar OsgEarthNet.uav[44] utilizationEnergyMission 14938.881835937
scalar OsgEarthNet.uav[44] utilizationEnergyMaintenance 7960.6753311157
scalar OsgEarthNet.uav[44] utilizationEnergyCharge 22899.567382812
scalar OsgEarthNet.uav[44] utilizationEnergyOverdrawMission 0
scalar OsgEarthNet.uav[44] utilizationEnergyOverdrawMaintenance 0
scalar OsgEarthNet.uav[44] utilizationCountMissions 5
scalar OsgEarthNet.uav[44] utilizationCountManeuversMission 55
scalar OsgEarthNet.uav[44] utilizationCountManeuversMaintenance 10
scalar OsgEarthNet.uav[44] utilizationCountChargeState 5
scalar OsgEarthNet.uav[44] utilizationCountOverdrawnAfterMission 0
scalar OsgEarthNet.uav[44] utilizationCountIdleState 4
scalar OsgEarthNet.uav[44] utilizationFail 0
scalar OsgEarthNet.uav[44] simulationTime 259200
scalar OsgEarthNet.uav[45] utilizationSecMission 6722.0039700313
scalar OsgEarthNet.uav[45] utilizationSecMaintenance 2429.5099536203
scalar OsgEarthNet.uav[45] utilizationSecCharge 34140
scalar OsgEarthNet.uav[45] utilizationSecIdle 215908.48507635
scalar OsgEarthNet.uav[45] utilizationEnergyMission 31240.90374046
scalar OsgEarthNet.uav[45] utilizationEnergyMaintenance 11680.605876923
scalar OsgEarthNet.uav[45] utilizationEnergyCharge 43000.911132812
scalar OsgEarthNet.uav[45] utilizationEnergyOverdrawMission 0
scalar OsgEarthNet.uav[45] utilizationEnergyOverdrawMaintenance 0
scalar OsgEarthNet.uav[45] utilizationCountMissions 9
scalar OsgEarthNet.uav[45] utilizationCountManeuversMission 105
scalar OsgEarthNet.uav[45] utilizationCountManeuversMaintenance 17
scalar OsgEarthNet.uav[45] utilizationCountChargeState 9
scalar OsgEarthNet.uav[45] utilizationCountOverdrawnAfterMission 0
scalar OsgEarthNet.uav[45] utilizationCountIdleState 10
scalar OsgEarthNet.uav[45] utilizationFail 0
scalar OsgEarthNet.uav[45] simulationTime 259200
scalar OsgEarthNet.uav[46] utilizationSecMission 22531.272969025
scalar OsgEarthNet.uav[46] utilizationSecMaintenance 7363.5452326495
scalar OsgEarthNet.uav[46] utilizationSecCharge 107303.35907606
scalar OsgEarthNet.uav[46] utilizationSecIdle 122001.82172227
scalar OsgEarthNet.uav[46] utilizationEnergyMission 103107.61890411
scalar OsgEarthNet.uav[46] utilizationEnergyMaintenance 34444.84009552
scalar OsgEarthNet.uav[46] utilizationEnergyCharge 133534.5579834
scalar OsgEarthNet.uav[46] utilizationEnergyOverdrawMission 0
scalar OsgEarthNet.uav[46] utilizationEnergyOverdrawMaintenance 0
scalar OsgEarthNet.uav[46] utilizationCountMissions 30
scalar OsgEarthNet.uav[46] utilizationCountManeuversMission 340
scalar OsgEarthNet.uav[46] utilizationCountManeuversMaintenance 60
scalar OsgEarthNet.uav[46] utilizationCountChargeState 30
scalar OsgEarthNet.uav[46] utilizationCountOverdrawnAfterMission 0
scalar OsgEarthNet.uav[46] utilizationCountIdleState 30
scalar OsgEarthNet.uav[46] utilizationFail 0
scalar OsgEarthNet.uav[46] simulationTime 259200
scalar OsgEarthNet.uav[47] utilizationSecMission 2665.110493042
scalar OsgEarthNet.uav[47] utilizationSecMaintenance 1325.9331190097
scalar OsgEarthNet.uav[47] utilizationSecCharge 14970
scalar OsgEarthNet.uav[47] utilizationSecIdle 240238.95538795
scalar OsgEarthNet.uav[47] utilizationEnergyMission 12215.688148499
scalar OsgEarthNet.uav[47] utilizationEnergyMaintenance 6601.0537986755
scalar OsgEarthNet.uav[47] utilizationEnergyCharge 18816.733886719
scalar OsgEarthNet.uav[47] utilizationEnergyOverdrawMission 0
scalar OsgEarthNet.uav[47] utilizationEnergyOverdrawMaintenance 0
scalar OsgEarthNet.uav[47] utilizationCountMissions 4
scalar OsgEarthNet.uav[47] utilizationCountManeuversMission 41
scalar OsgEarthNet.uav[47] utilizationCountManeuversMaintenance 8
scalar OsgEarthNet.uav[47] utilizationCountChargeState 4
scalar OsgEarthNet.uav[47] utilizationCountOverdrawnAfterMission 0
scalar OsgEarthNet.uav[47] utilizationCountIdleState 5
scalar OsgEarthNet.uav[47] utilizationFail 0
scalar OsgEarthNet.uav[47] simulationTime 259200
scalar OsgEarthNet.uav[48] utilizationSecMission 42377.13696402
scalar OsgEarthNet.uav[48] utilizationSecMaintenance 13916.856727156
scalar OsgEarthNet.uav[48] utilizationSecCharge 193057.29186222
scalar OsgEarthNet.uav[48] utilizationSecIdle 9848.7134466005
scalar OsgEarthNet.uav[48] utilizationEnergyMission 194112.50054169
scalar OsgEarthNet.uav[48] utilizationEnergyMaintenance 62901.619174957
scalar OsgEarthNet.uav[48] utilizationEnergyCharge 257288.07421875
scalar OsgEarthNet.uav[48] utilizationEnergyOverdrawMission 0
scalar OsgEarthNet.uav[48] utilizationEnergyOverdrawMaintenance 0
scalar OsgEarthNet.uav[48] utilizationCountMissions 55
scalar OsgEarthNet.uav[48] utilizationCountManeuversMission 734
scalar OsgEarthNet.uav[48] utilizationCountManeuversMaintenance 110
scalar OsgEarthNet.uav[48] utilizationCountChargeState 55
scalar OsgEarthNet.uav[48] utilizationCountOverdrawnAfterMission 0
scalar OsgEarthNet.uav[48] utilizationCountIdleState 17
scalar OsgEarthNet.uav[48] utilizationFail 0
scalar OsgEarthNet.uav[48] simulationTime 259200
scalar OsgEarthNet.uav[49] utilizationSecMission 12698.504364064
scalar OsgEarthNet.uav[49] utilizationSecMaintenance 3911.7545641158
scalar OsgEarthNet.uav[49] utilizationSecCharge 60120.189714447
scalar OsgEarthNet.uav[49] utilizationSecIdle 182469.55035737
scalar OsgEarthNet.uav[49] utilizationEnergyMission 59876.418464661
scalar OsgEarthNet.uav[49] utilizationEnergyMaintenance 19028.264305115
scalar OsgEarthNet.uav[49] utilizationEnergyCharge 75330.439147949
scalar OsgEarthNet.uav[49] utilizationEnergyOverdrawMission 0
scalar OsgEarthNet.uav[49] utilizationEnergyOverdrawMaintenance 0
scalar OsgEarthNet.uav[49] utilizationCountMissions 17
scalar OsgEarthNet.uav[49] utilizationCountManeuversMission 193
scalar OsgEarthNet.uav[49] utilizationCountManeuversMaintenance 34
scalar OsgEarthNet.uav[49] utilizationCountChargeState 17
scalar OsgEarthNet.uav[49] utilizationCountOverdrawnAfterMission 0
scalar OsgEarthNet.uav[49] utilizationCountIdleState 17
scalar OsgEarthNet.uav[49] utilizationFail 0
scalar OsgEarthNet.uav[49] simulationTime 259200
scalar OsgEarthNet.uav[50] utilizationSecMission 12152.370538008
scalar OsgEarthNet.uav[50] utilizationSecMaintenance 3732.4836344049
scalar OsgEarthNet.uav[50] utilizationSecCharge 58396.195785686
scalar OsgEarthNet.uav[50] utilizationSecIdle 184918.9490419
scalar OsgEarthNet.uav[50] utilizationEnergyMission 56415.481910706
scalar OsgEarthNet.uav[50] utilizationEnergyMaintenance 17869.707336426
scalar OsgEarthNet.uav[50] utilizationEnergyCharge 73868.475097656
scalar OsgEarthNet.uav[50] utilizationEnergyOverdrawMission 0
scalar OsgEarthNet.uav[50] utilizationEnergyOverdrawMaintenance 0
scalar OsgEarthNet.uav[50] utilizationCountMissions 16
scalar OsgEarthNet.uav[50] utilizationCountManeuversMission 184
scalar OsgEarthNet.uav[50] utilizationCountManeuversMaintenance 32
scalar OsgEarthNet.uav[50] utilizationCountChargeState 16
scalar OsgEarthNet.uav[50] utilizationCountOverdrawnAfterMission 0
scalar OsgEarthNet.uav[50] utilizationCountIdleState 16
scalar OsgEarthNet.uav[50] utilizationFail 0
scalar OsgEarthNet.uav[50] simulationTime 259200
scalar OsgEarthNet.uav[51] utilizationSecMission 8577.843065625
scalar OsgEarthNet.uav[51] utilizationSecMaintenance 4459.2796856528
scalar OsgEarthNet.uav[51] utilizationSecCharge 48180
scalar OsgEarthNet.uav[51] utilizationSecIdle 197982.87624872
scalar OsgEarthNet.uav[51] utilizationEnergyMission 39714.28515625
scalar OsgEarthNet.uav[51] utilizationEnergyMaintenance 21231.797798157
scalar OsgEarthNet.uav[51] utilizationEnergyCharge 60946.082519531
scalar OsgEarthNet.uav[51] utilizationEnergyOverdrawMission 0
scalar OsgEarthNet.uav[51] utilizationEnergyOverdrawMaintenance 0
scalar OsgEarthNet.uav[51] utilizationCountMissions 13
scalar OsgEarthNet.uav[51] utilizationCountManeuversMission 141
scalar OsgEarthNet.uav[51] utilizationCountManeuversMaintenance 26
scalar OsgEarthNet.uav[51] utilizationCountChargeState 13
scalar OsgEarthNet.uav[51] utilizationCountOverdrawnAfterMission 0
scalar OsgEarthNet.uav[51] utilizationCountIdleState 12
scalar OsgEarthNet.uav[51] utilizationFail 0
scalar OsgEarthNet.uav[51] simulationTime 259200
scalar OsgEarthNet.uav[52] utilizationSecMission 20180.520145839
scalar OsgEarthNet.uav[52] utilizationSecMaintenance 7897.1704017998
scalar OsgEarthNet.uav[52] utilizationSecCharge 103520
scalar OsgEarthNet.uav[52] utilizationSecIdle 127602.30845236
scalar OsgEarthNet.uav[52] utilizationEnergyMission 93376.837974548
scalar OsgEarthNet.uav[52] utilizationEnergyMaintenance 37080.73097229
scalar OsgEarthNet.uav[52] utilizationEnergyCharge 130003.10888672
scalar OsgEarthNet.uav[52] utilizationEnergyOverdrawMission 0
scalar OsgEarthNet.uav[52] utilizationEnergyOverdrawMaintenance 0
scalar OsgEarthNet.uav[52] utilizationCountMissions 28
scalar OsgEarthNet.uav[52] utilizationCountManeuversMission 324
scalar OsgEarthNet.uav[52] utilizationCountManeuversMaintenance 56
scalar OsgEarthNet.uav[52] utilizationCountChargeState 28
scalar OsgEarthNet.uav[52] utilizationCountOverdrawnAfterMission 0
scalar OsgEarthNet.uav[52] utilizationCountIdleState 25
scalar OsgEarthNet.uav[52] utilizationFail 0
scalar OsgEarthNet.uav[52] simulationTime 259200
scalar OsgEarthNet.uav[53] utilizationSecMission 7430.2874474348
scalar OsgEarthNet.uav[53] utilizationSecMaintenance 3624.8087616989
scalar OsgEarthNet.uav[53] utilizationSecCharge 40620
scalar OsgEarthNet.uav[53] utilizationSecIdle 207524.90279087
scalar OsgEarthNet.uav[53] utilizationEnergyMission 34260.273826599
scalar OsgEarthNet.uav[53] utilizationEnergyMaintenance 17269.737991333
scalar OsgEarthNet.uav[53] utilizationEnergyCharge 51530.022460938
scalar OsgEarthNet.uav[53] utilizationEnergyOverdrawMission 0
scalar OsgEarthNet.uav[53] utilizationEnergyOverdrawMaintenance 0
scalar OsgEarthNet.uav[53] utilizationCountMissions 11
scalar OsgEarthNet.uav[53] utilizationCountManeuversMission 128
scalar OsgEarthNet.uav[53] utilizationCountManeuversMaintenance 22
scalar OsgEarthNet.uav[53] utilizationCountChargeState 11
scalar OsgEarthNet.uav[53] utilizationCountOverdrawnAfterMission 0
scalar OsgEarthNet.uav[53] utilizationCountIdleState 8
scalar OsgEarthNet.uav[53] utilizationFail 0
scalar OsgEarthNet.uav[53] simulationTime 259200
scalar OsgEarthNet.uav[54] utilizationSecMission 7840.906318947
scalar OsgEarthNet.uav[54] utilizationSecMaintenance 3115.7042893449
scalar OsgEarthNet.uav[54] utilizationSecCharge 39359.154347163
scalar OsgEarthNet.uav[54] utilizationSecIdle 208884.23404455
scalar OsgEarthNet.uav[54] utilizationEnergyMission 36050.517669678
scalar OsgEarthNet.uav[54] utilizationEnergyMaintenance 14826.053787231
scalar OsgEarthNet.uav[54] utilizationEnergyCharge 50204.219238281
scalar OsgEarthNet.uav[54] utilizationEnergyOverdrawMission 0
scalar OsgEarthNet.uav[54] utilizationEnergyOverdrawMaintenance 0
scalar OsgEarthNet.uav[54] utilizationCountMissions 11
scalar OsgEarthNet.uav[54] utilizationCountManeuversMission 122
scalar OsgEarthNet.uav[54] utilizationCountManeuversMaintenance 22
scalar OsgEarthNet.uav[54] utilizationCountChargeState 11
scalar OsgEarthNet.uav[54] utilizationCountOverdrawnAfterMission 0
scalar OsgEarthNet.uav[54] utilizationCountIdleState 11
scalar OsgEarthNet.uav[54] utilizationFail 0
scalar OsgEarthNet.uav[54] simulationTime 259200
scalar OsgEarthNet.uav[55] utilizationSecMission 12712.444132648
scalar OsgEarthNet.uav[55] utilizationSecMaintenance 5619.3781697016
scalar OsgEarthNet.uav[55] utilizationSecCharge 67590
scalar OsgEarthNet.uav[55] utilizationSecIdle 173278.17669765
scalar OsgEarthNet.uav[55] utilizationEnergyMission 58224.255729675
scalar OsgEarthNet.uav[55] utilizationEnergyMaintenance 26224.797264099
scalar OsgEarthNet.uav[55] utilizationEnergyCharge 84584.12890625
scalar OsgEarthNet.uav[55] utilizationEnergyOverdrawMission 0
scalar OsgEarthNet.uav[55] utilizationEnergyOverdrawMaintenance 0
scalar OsgEarthNet.uav[55] utilizationCountMissions 18
scalar OsgEarthNet.uav[55] utilizationCountManeuversMission 203
scalar OsgEarthNet.uav[55] utilizationCountManeuversMaintenance 36
scalar OsgEarthNet.uav[55] utilizationCountChargeState 18
scalar OsgEarthNet.uav[55] utilizationCountOverdrawnAfterMission 0
scalar OsgEarthNet.uav[55] utilizationCountIdleState 19
scalar OsgEarthNet.uav[55] utilizationFail 0
scalar OsgEarthNet.uav[55] simulationTime 259200
scalar OsgEarthNet.uav[56] utilizationSecMission 10534.462529373
scalar OsgEarthNet.uav[56] utilizationSecMaintenance 3294.0513414745
scalar OsgEarthNet.uav[56] utilizationSecCharge 51600
scalar OsgEarthNet.uav[56] utilizationSecIdle 193771.48512915
scalar OsgEarthNet.uav[56] utilizationEnergyMission 48267.405754089
scalar OsgEarthNet.uav[56] utilizationEnergyMaintenance 16047.826007843
scalar OsgEarthNet.uav[56] utilizationEnergyCharge 64102.473144531
scalar OsgEarthNet.uav[56] utilizationEnergyOverdrawMission 0
scalar OsgEarthNet.uav[56] utilizationEnergyOverdrawMaintenance 0
scalar OsgEarthNet.uav[56] utilizationCountMissions 14
scalar OsgEarthNet.uav[56] utilizationCountManeuversMission 162
scalar OsgEarthNet.uav[56] utilizationCountManeuversMaintenance 28
scalar OsgEarthNet.uav[56] utilizationCountChargeState 14
scalar OsgEarthNet.uav[56] utilizationCountOverdrawnAfterMission 0
scalar OsgEarthNet.uav[56] utilizationCountIdleState 15
scalar OsgEarthNet.uav[56] utilizationFail 0
scalar OsgEarthNet.uav[56] simulationTime 259200
scalar OsgEarthNet.uav[57] utilizationSecMission 4636.5022778159
scalar OsgEarthNet.uav[57] utilizationSecMaintenance 2382.3905302897
scalar OsgEarthNet.uav[57] utilizationSecCharge 26290
scalar OsgEarthNet.uav[57] utilizationSecIdle 225891.10619189
scalar OsgEarthNet.uav[57] utilizationEnergyMission 21484.183258057
scalar OsgEarthNet.uav[57] utilizationEnergyMaintenance 11473.729206085
scalar OsgEarthNet.uav[57] utilizationEnergyCharge 32957.906738281
scalar OsgEarthNet.uav[57] utilizationEnergyOverdrawMission 0
scalar OsgEarthNet.uav[57] utilizationEnergyOverdrawMaintenance 0
scalar OsgEarthNet.uav[57] utilizationCountMissions 7
scalar OsgEarthNet.uav[57] utilizationCountManeuversMission 74
scalar OsgEarthNet.uav[57] utilizationCountManeuversMaintenance 14
scalar OsgEarthNet.uav[57] utilizationCountChargeState 7
scalar OsgEarthNet.uav[57] utilizationCountOverdrawnAfterMission 0
scalar OsgEarthNet.uav[57] utilizationCountIdleState 8
scalar OsgEarthNet.uav[57] utilizationFail 0
scalar OsgEarthNet.uav[57] simulationTime 259200
scalar OsgEarthNet.uav[58] utilizationSecMission 7697.5137012223
scalar OsgEarthNet.uav[58] utilizationSecMaintenance 4346.4492000084
scalar OsgEarthNet.uav[58] utilizationSecCharge 41620
scalar OsgEarthNet.uav[58] utilizationSecIdle 205536.03609877
scalar OsgEarthNet.uav[58] utilizationEnergyMission 35634.1003723
scalar OsgEarthNet.uav[58] utilizationEnergyMaintenance 20534.361850739
scalar OsgEarthNet.uav[58] utilizationEnergyCharge 52339.033691406
scalar OsgEarthNet.uav[58] utilizationEnergyOverdrawMission 0
scalar OsgEarthNet.uav[58] utilizationEnergyOverdrawMaintenance 0
scalar OsgEarthNet.uav[58] utilizationCountMissions 11
scalar OsgEarthNet.uav[58] utilizationCountManeuversMission 128
scalar OsgEarthNet.uav[58] utilizationCountManeuversMaintenance 23
scalar OsgEarthNet.uav[58] utilizationCountChargeState 11
scalar OsgEarthNet.uav[58] utilizationCountOverdrawnAfterMission 0
scalar OsgEarthNet.uav[58] utilizationCountIdleState 12
scalar OsgEarthNet.uav[58] utilizationFail 0
scalar OsgEarthNet.uav[58] simulationTime 259200
scalar OsgEarthNet.uav[59] utilizationSecMission 6827.4603665162
scalar OsgEarthNet.uav[59] utilizationSecMaintenance 3203.9501270425
scalar OsgEarthNet.uav[59] utilizationSecCharge 37870
scalar OsgEarthNet.uav[59] utilizationSecIdle 211298.58850644
scalar OsgEarthNet.uav[59] utilizationEnergyMission 32018.004150391
scalar OsgEarthNet.uav[59] utilizationEnergyMaintenance 15534.947788239
scalar OsgEarthNet.uav[59] utilizationEnergyCharge 47552.952148438
scalar OsgEarthNet.uav[59] utilizationEnergyOverdrawMission 0
scalar OsgEarthNet.uav[59] utilizationEnergyOverdrawMaintenance 0
scalar OsgEarthNet.uav[59] utilizationCountMissions 10
scalar OsgEarthNet.uav[59] utilizationCountManeuversMission 108
scalar OsgEarthNet.uav[59] utilizationCountManeuversMaintenance 20
scalar OsgEarthNet.uav[59] utilizationCountChargeState 10
scalar OsgEarthNet.uav[59] utilizationCountOverdrawnAfterMission 0
scalar OsgEarthNet.uav[59] utilizationCountIdleState 11
scalar OsgEarthNet.uav[59] utilizationFail 0
scalar OsgEarthNet.uav[59] simulationTime 259200
scalar OsgEarthNet.uav[60] utilizationSecMission 19856.804163778
scalar OsgEarthNet.uav[60] utilizationSecMaintenance 6833.6888028463
scalar OsgEarthNet.uav[60] utilizationSecCharge 97465.83069135
scalar OsgEarthNet.uav[60] utilizationSecIdle 135043.67534203
scalar OsgEarthNet.uav[60] utilizationEnergyMission 91527.914131165
scalar OsgEarthNet.uav[60] utilizationEnergyMaintenance 32631.619430542
scalar OsgEarthNet.uav[60] utilizationEnergyCharge 122368.69775391
scalar OsgEarthNet.uav[60] utilizationEnergyOverdrawMission 0
scalar OsgEarthNet.uav[60] utilizationEnergyOverdrawMaintenance 0
scalar OsgEarthNet.uav[60] utilizationCountMissions 27
scalar OsgEarthNet.uav[60] utilizationCountManeuversMission 311
scalar OsgEarthNet.uav[60] utilizationCountManeuversMaintenance 54
scalar OsgEarthNet.uav[60] utilizationCountChargeState 27
scalar OsgEarthNet.uav[60] utilizationCountOverdrawnAfterMission 0
scalar OsgEarthNet.uav[60] utilizationCountIdleState 26
scalar OsgEarthNet.uav[60] utilizationFail 0
scalar OsgEarthNet.uav[60] simulationTime 259200
scalar OsgEarthNet.uav[61] utilizationSecMission 5320.8778571476
scalar OsgEarthNet.uav[61] utilizationSecMaintenance 2617.0793519371
scalar OsgEarthNet.uav[61] utilizationSecCharge 29590
scalar OsgEarthNet.uav[61] utilizationSecIdle 221672.04179092
scalar OsgEarthNet.uav[61] utilizationEnergyMission 25236.920280457
scalar OsgEarthNet.uav[61] utilizationEnergyMaintenance 12784.715068817
scalar OsgEarthNet.uav[61] utilizationEnergyCharge 38021.645019531
scalar OsgEarthNet.uav[61] utilizationEnergyOverdrawMission 0
scalar OsgEarthNet.uav[61] utilizationEnergyOverdrawMaintenance 0
scalar OsgEarthNet.uav[61] utilizationCountMissions 8
scalar OsgEarthNet.uav[61] utilizationCountManeuversMission 87
scalar OsgEarthNet.uav[61] utilizationCountManeuversMaintenance 16
scalar OsgEarthNet.uav[61] utilizationCountChargeState 8
scalar OsgEarthNet.uav[61] utilizationCountOverdrawnAfterMission 0
scalar OsgEarthNet.uav[61] utilizationCountIdleState 7
scalar OsgEarthNet.uav[61] utilizationFail 0
scalar OsgEarthNet.uav[61] simulationTime 259200
scalar OsgEarthNet.uav[62] utilizationSecMission 42841.051491818
scalar OsgEarthNet.uav[62] utilizationSecMaintenance 13591.923639028
scalar OsgEarthNet.uav[62] utilizationSecCharge 194294.30772773
scalar OsgEarthNet.uav[62] utilizationSecIdle 8472.716141425
scalar OsgEarthNet.uav[62] utilizationEnergyMission 197575.58260727
scalar OsgEarthNet.uav[62] utilizationEnergyMaintenance 63056.896396637
scalar OsgEarthNet.uav[62] utilizationEnergyCharge 257590.14794922
scalar OsgEarthNet.uav[62] utilizationEnergyOverdrawMission 0
scalar OsgEarthNet.uav[62] utilizationEnergyOverdrawMaintenance 0
scalar OsgEarthNet.uav[62] utilizationCountMissions 55
scalar OsgEarthNet.uav[62] utilizationCountManeuversMission 742
scalar OsgEarthNet.uav[62] utilizationCountManeuversMaintenance 110
scalar OsgEarthNet.uav[62] utilizationCountChargeState 55
scalar OsgEarthNet.uav[62] utilizationCountOverdrawnAfterMission 0
scalar OsgEarthNet.uav[62] utilizationCountIdleState 17
scalar OsgEarthNet.uav[62] utilizationFail 0
scalar OsgEarthNet.uav[62] simulationTime 259200
scalar OsgEarthNet.uav[63] utilizationSecMission 8112.0390762676
scalar OsgEarthNet.uav[63] utilizationSecMaintenance 2780.0472392667
scalar OsgEarthNet.uav[63] utilizationSecCharge 40740
scalar OsgEarthNet.uav[63] utilizationSecIdle 207567.91268447
scalar OsgEarthNet.uav[63] utilizationEnergyMission 37163.654754639
scalar OsgEarthNet.uav[63] utilizationEnergyMaintenance 13515.977371216
scalar OsgEarthNet.uav[63] utilizationEnergyCharge 50679.640136719
scalar OsgEarthNet.uav[63] utilizationEnergyOverdrawMission 0
scalar OsgEarthNet.uav[63] utilizationEnergyOverdrawMaintenance 0
scalar OsgEarthNet.uav[63] utilizationCountMissions 11
scalar OsgEarthNet.uav[63] utilizationCountManeuversMission 125
scalar OsgEarthNet.uav[63] utilizationCountManeuversMaintenance 22
scalar OsgEarthNet.uav[63] utilizationCountChargeState 11
scalar OsgEarthNet.uav[63] utilizationCountOverdrawnAfterMission 0
scalar OsgEarthNet.uav[63] utilizationCountIdleState 12
scalar OsgEarthNet.uav[63] utilizationFail 0
scalar OsgEarthNet.uav[63] simulationTime 259200
scalar OsgEarthNet.uav[64] utilizationSecMission 3408.3172732402
scalar OsgEarthNet.uav[64] utilizationSecMaintenance 1612.1374824438
scalar OsgEarthNet.uav[64] utilizationSecCharge 19020
scalar OsgEarthNet.uav[64] utilizationSecIdle 235159.54424432
scalar OsgEarthNet.uav[64] utilizationEnergyMission 15569.483375549
scalar OsgEarthNet.uav[64] utilizationEnergyMaintenance 8386.4999465942
scalar OsgEarthNet.uav[64] utilizationEnergyCharge 23955.981445312
scalar OsgEarthNet.uav[64] utilizationEnergyOverdrawMission 0
scalar OsgEarthNet.uav[64] utilizationEnergyOverdrawMaintenance 0
scalar OsgEarthNet.uav[64] utilizationCountMissions 5
scalar OsgEarthNet.uav[64] utilizationCountManeuversMission 53
scalar OsgEarthNet.uav[64] utilizationCountManeuversMaintenance 10
scalar OsgEarthNet.uav[64] utilizationCountChargeState 5
scalar OsgEarthNet.uav[64] utilizationCountOverdrawnAfterMission 0
scalar OsgEarthNet.uav[64] utilizationCountIdleState 6
scalar OsgEarthNet.uav[64] utilizationFail 0
scalar OsgEarthNet.uav[64] simulationTime 259200
scalar OsgEarthNet.uav[65] utilizationSecMission 6422.486506425
[...]
scalar OsgEarthNet.uav[82] utilizationSecIdle 137425.99291101
scalar OsgEarthNet.uav[82] utilizationEnergyMission 88854.191200256
scalar OsgEarthNet.uav[82] utilizationEnergyMaintenance 30899.046104431
scalar OsgEarthNet.uav[82] utilizationEnergyCharge 119643.33154297
scalar OsgEarthNet.uav[82] utilizationEnergyOverdrawMission 0
scalar OsgEarthNet.uav[82] utilizationEnergyOverdrawMaintenance 0
scalar OsgEarthNet.uav[82] utilizationCountMissions 26
scalar OsgEarthNet.uav[82] utilizationCountManeuversMission 296
scalar OsgEarthNet.uav[82] utilizationCountManeuversMaintenance 52
scalar OsgEarthNet.uav[82] utilizationCountChargeState 26
scalar OsgEarthNet.uav[82] utilizationCountOverdrawnAfterMission 0
scalar OsgEarthNet.uav[82] utilizationCountIdleState 27
scalar OsgEarthNet.uav[82] utilizationFail 0
scalar OsgEarthNet.uav[82] simulationTime 259200
scalar OsgEarthNet.uav[83] utilizationSecMission 8091.1982260635
scalar OsgEarthNet.uav[83] utilizationSecMaintenance 2804.0201734213
scalar OsgEarthNet.uav[83] utilizationSecCharge 41080
scalar OsgEarthNet.uav[83] utilizationSecIdle 207224.78060052
scalar OsgEarthNet.uav[83] utilizationEnergyMission 38119.624931335
scalar OsgEarthNet.uav[83] utilizationEnergyMaintenance 13251.105686188
scalar OsgEarthNet.uav[83] utilizationEnergyCharge 51317.239257812
scalar OsgEarthNet.uav[83] utilizationEnergyOverdrawMission 0
scalar OsgEarthNet.uav[83] utilizationEnergyOverdrawMaintenance 0
scalar OsgEarthNet.uav[83] utilizationCountMissions 11
scalar OsgEarthNet.uav[83] utilizationCountManeuversMission 123
scalar OsgEarthNet.uav[83] utilizationCountManeuversMaintenance 22
scalar OsgEarthNet.uav[83] utilizationCountChargeState 11
scalar OsgEarthNet.uav[83] utilizationCountOverdrawnAfterMission 0
scalar OsgEarthNet.uav[83] utilizationCountIdleState 12
scalar OsgEarthNet.uav[83] utilizationFail 0
scalar OsgEarthNet.uav[83] simulationTime 259200
scalar OsgEarthNet.uav[84] utilizationSecMission 7022.3526111942
scalar OsgEarthNet.uav[84] utilizationSecMaintenance 3822.3128851542
scalar OsgEarthNet.uav[84] utilizationSecCharge 40350
scalar OsgEarthNet.uav[84] utilizationSecIdle 208005.33350365
scalar OsgEarthNet.uav[84] utilizationEnergyMission 32746.416572571
scalar OsgEarthNet.uav[84] utilizationEnergyMaintenance 17935.242061615
scalar OsgEarthNet.uav[84] utilizationEnergyCharge 50681.661132812
scalar OsgEarthNet.uav[84] utilizationEnergyOverdrawMission 0
scalar OsgEarthNet.uav[84] utilizationEnergyOverdrawMaintenance 0
scalar OsgEarthNet.uav[84] utilizationCountMissions 11
scalar OsgEarthNet.uav[84] utilizationCountManeuversMission 121
scalar OsgEarthNet.uav[84] utilizationCountManeuversMaintenance 22
scalar OsgEarthNet.uav[84] utilizationCountChargeState 11
scalar OsgEarthNet.uav[84] utilizationCountOverdrawnAfterMission 0
scalar OsgEarthNet.uav[84] utilizationCountIdleState 9
scalar OsgEarthNet.uav[84] utilizationFail 0
scalar OsgEarthNet.uav[84] simulationTime 259200
scalar OsgEarthNet.uav[85] utilizationSecMission 42318.547590465
scalar OsgEarthNet.uav[85] utilizationSecMaintenance 13220.31805866
scalar OsgEarthNet.uav[85] utilizationSecCharge 194826.4225991
scalar OsgEarthNet.uav[85] utilizationSecIdle 8834.7107517761
scalar OsgEarthNet.uav[85] utilizationEnergyMission 194946.37171936
scalar OsgEarthNet.uav[85] utilizationEnergyMaintenance 60761.075340271
scalar OsgEarthNet.uav[85] utilizationEnergyCharge 255671.51367188
scalar OsgEarthNet.uav[85] utilizationEnergyOverdrawMission 0
scalar OsgEarthNet.uav[85] utilizationEnergyOverdrawMaintenance 0
scalar OsgEarthNet.uav[85] utilizationCountMissions 54
scalar OsgEarthNet.uav[85] utilizationCountManeuversMission 728
scalar OsgEarthNet.uav[85] utilizationCountManeuversMaintenance 108
scalar OsgEarthNet.uav[85] utilizationCountChargeState 54
scalar OsgEarthNet.uav[85] utilizationCountOverdrawnAfterMission 0
scalar OsgEarthNet.uav[85] utilizationCountIdleState 29
scalar OsgEarthNet.uav[85] utilizationFail 0
scalar OsgEarthNet.uav[85] simulationTime 259200
scalar OsgEarthNet.uav[86] utilizationSecMission 12169.667371913
scalar OsgEarthNet.uav[86] utilizationSecMaintenance 3759.4852975542
scalar OsgEarthNet.uav[86] utilizationSecCharge 56488.146799649
scalar OsgEarthNet.uav[86] utilizationSecIdle 186782.69953088
scalar OsgEarthNet.uav[86] utilizationEnergyMission 55907.294384003
scalar OsgEarthNet.uav[86] utilizationEnergyMaintenance 18326.648784637
scalar OsgEarthNet.uav[86] utilizationEnergyCharge 70887.843017578
scalar OsgEarthNet.uav[86] utilizationEnergyOverdrawMission 0
scalar OsgEarthNet.uav[86] utilizationEnergyOverdrawMaintenance 0
scalar OsgEarthNet.uav[86] utilizationCountMissions 16
scalar OsgEarthNet.uav[86] utilizationCountManeuversMission 187
scalar OsgEarthNet.uav[86] utilizationCountManeuversMaintenance 32
scalar OsgEarthNet.uav[86] utilizationCountChargeState 16
scalar OsgEarthNet.uav[86] utilizationCountOverdrawnAfterMission 0
scalar OsgEarthNet.uav[86] utilizationCountIdleState 16
scalar OsgEarthNet.uav[86] utilizationFail 0
scalar OsgEarthNet.uav[86] simulationTime 259200
scalar OsgEarthNet.uav[87] utilizationSecMission 7209.0185089955
scalar OsgEarthNet.uav[87] utilizationSecMaintenance 3783.079572691
scalar OsgEarthNet.uav[87] utilizationSecCharge 41190
scalar OsgEarthNet.uav[87] utilizationSecIdle 207017.90091831
scalar OsgEarthNet.uav[87] utilizationEnergyMission 33815.02166748
scalar OsgEarthNet.uav[87] utilizationEnergyMaintenance 17873.11555481
scalar OsgEarthNet.uav[87] utilizationEnergyCharge 51688.132324219
scalar OsgEarthNet.uav[87] utilizationEnergyOverdrawMission 0
scalar OsgEarthNet.uav[87] utilizationEnergyOverdrawMaintenance 0
scalar OsgEarthNet.uav[87] utilizationCountMissions 11
scalar OsgEarthNet.uav[87] utilizationCountManeuversMission 119
scalar OsgEarthNet.uav[87] utilizationCountManeuversMaintenance 22
scalar OsgEarthNet.uav[87] utilizationCountChargeState 11
scalar OsgEarthNet.uav[87] utilizationCountOverdrawnAfterMission 0
scalar OsgEarthNet.uav[87] utilizationCountIdleState 12
scalar OsgEarthNet.uav[87] utilizationFail 0
scalar OsgEarthNet.uav[87] simulationTime 259200
scalar OsgEarthNet.uav[88] utilizationSecMission 5241.4384777666
scalar OsgEarthNet.uav[88] utilizationSecMaintenance 2836.1030770867
scalar OsgEarthNet.uav[88] utilizationSecCharge 30340
scalar OsgEarthNet.uav[88] utilizationSecIdle 220782.45744515
scalar OsgEarthNet.uav[88] utilizationEnergyMission 24601.814399719
scalar OsgEarthNet.uav[88] utilizationEnergyMaintenance 13447.753479004
scalar OsgEarthNet.uav[88] utilizationEnergyCharge 38049.564941406
scalar OsgEarthNet.uav[88] utilizationEnergyOverdrawMission 0
scalar OsgEarthNet.uav[88] utilizationEnergyOverdrawMaintenance 0
scalar OsgEarthNet.uav[88] utilizationCountMissions 8
scalar OsgEarthNet.uav[88] utilizationCountManeuversMission 84
scalar OsgEarthNet.uav[88] utilizationCountManeuversMaintenance 16
scalar OsgEarthNet.uav[88] utilizationCountChargeState 8
scalar OsgEarthNet.uav[88] utilizationCountOverdrawnAfterMission 0
scalar OsgEarthNet.uav[88] utilizationCountIdleState 9
scalar OsgEarthNet.uav[88] utilizationFail 0
scalar OsgEarthNet.uav[88] simulationTime 259200
scalar OsgEarthNet.uav[89] utilizationSecMission 5694.1655618468
scalar OsgEarthNet.uav[89] utilizationSecMaintenance 2079.594906123
scalar OsgEarthNet.uav[89] utilizationSecCharge 29530
scalar OsgEarthNet.uav[89] utilizationSecIdle 221896.23853203
scalar OsgEarthNet.uav[89] utilizationEnergyMission 26797.940841675
scalar OsgEarthNet.uav[89] utilizationEnergyMaintenance 10147.631175995
scalar OsgEarthNet.uav[89] utilizationEnergyCharge 36811.212890625
scalar OsgEarthNet.uav[89] utilizationEnergyOverdrawMission 0
scalar OsgEarthNet.uav[89] utilizationEnergyOverdrawMaintenance 0
scalar OsgEarthNet.uav[89] utilizationCountMissions 8
scalar OsgEarthNet.uav[89] utilizationCountManeuversMission 89
scalar OsgEarthNet.uav[89] utilizationCountManeuversMaintenance 16
scalar OsgEarthNet.uav[89] utilizationCountChargeState 8
scalar OsgEarthNet.uav[89] utilizationCountOverdrawnAfterMission 0
scalar OsgEarthNet.uav[89] utilizationCountIdleState 9
scalar OsgEarthNet.uav[89] utilizationFail 0
scalar OsgEarthNet.uav[89] simulationTime 259200
scalar OsgEarthNet.uav[90] utilizationSecMission 13835.798420388
scalar OsgEarthNet.uav[90] utilizationSecMaintenance 4247.3225461067
scalar OsgEarthNet.uav[90] utilizationSecCharge 66908.536724812
scalar OsgEarthNet.uav[90] utilizationSecIdle 174208.34130869
scalar OsgEarthNet.uav[90] utilizationEnergyMission 62816.193641663
scalar OsgEarthNet.uav[90] utilizationEnergyMaintenance 20894.661369324
scalar OsgEarthNet.uav[90] utilizationEnergyCharge 83637.295410156
scalar OsgEarthNet.uav[90] utilizationEnergyOverdrawMission 0
scalar OsgEarthNet.uav[90] utilizationEnergyOverdrawMaintenance 0
scalar OsgEarthNet.uav[90] utilizationCountMissions 18
scalar OsgEarthNet.uav[90] utilizationCountManeuversMission 210
scalar OsgEarthNet.uav[90] utilizationCountManeuversMaintenance 36
scalar OsgEarthNet.uav[90] utilizationCountChargeState 18
scalar OsgEarthNet.uav[90] utilizationCountOverdrawnAfterMission 0
scalar OsgEarthNet.uav[90] utilizationCountIdleState 18
scalar OsgEarthNet.uav[90] utilizationFail 0
scalar OsgEarthNet.uav[90] simulationTime 259200
scalar OsgEarthNet.uav[91] utilizationSecMission 10930.892850148
scalar OsgEarthNet.uav[91] utilizationSecMaintenance 5100.3667532794
scalar OsgEarthNet.uav[91] utilizationSecCharge 59830
scalar OsgEarthNet.uav[91] utilizationSecIdle 183338.73939657
scalar OsgEarthNet.uav[91] utilizationEnergyMission 50313.879295349
scalar OsgEarthNet.uav[91] utilizationEnergyMaintenance 24418.212535858
scalar OsgEarthNet.uav[91] utilizationEnergyCharge 74732.071289062
scalar OsgEarthNet.uav[91] utilizationEnergyOverdrawMission 0
scalar OsgEarthNet.uav[91] utilizationEnergyOverdrawMaintenance 0
scalar OsgEarthNet.uav[91] utilizationCountMissions 16
scalar OsgEarthNet.uav[91] utilizationCountManeuversMission 173
scalar OsgEarthNet.uav[91] utilizationCountManeuversMaintenance 32
scalar OsgEarthNet.uav[91] utilizationCountChargeState 16
scalar OsgEarthNet.uav[91] utilizationCountOverdrawnAfterMission 0
scalar OsgEarthNet.uav[91] utilizationCountIdleState 17
scalar OsgEarthNet.uav[91] utilizationFail 0
scalar OsgEarthNet.uav[91] simulationTime 259200
scalar OsgEarthNet.uav[92] utilizationSecMission 5096.7999655649
scalar OsgEarthNet.uav[92] utilizationSecMaintenance 2931.691233714
scalar OsgEarthNet.uav[92] utilizationSecCharge 30090
scalar OsgEarthNet.uav[92] utilizationSecIdle 221081.50780072
scalar OsgEarthNet.uav[92] utilizationEnergyMission 23684.991820987
scalar OsgEarthNet.uav[92] utilizationEnergyMaintenance 14002.949462891
scalar OsgEarthNet.uav[92] utilizationEnergyCharge 37644.136230469
scalar OsgEarthNet.uav[92] utilizationEnergyOverdrawMission 0
scalar OsgEarthNet.uav[92] utilizationEnergyOverdrawMaintenance 0
scalar OsgEarthNet.uav[92] utilizationCountMissions 8
scalar OsgEarthNet.uav[92] utilizationCountManeuversMission 86
scalar OsgEarthNet.uav[92] utilizationCountManeuversMaintenance 15
scalar OsgEarthNet.uav[92] utilizationCountChargeState 8
scalar OsgEarthNet.uav[92] utilizationCountOverdrawnAfterMission 0
scalar OsgEarthNet.uav[92] utilizationCountIdleState 9
scalar OsgEarthNet.uav[92] utilizationFail 0
scalar OsgEarthNet.uav[92] simulationTime 259200
scalar OsgEarthNet.uav[93] utilizationSecMission 3203.9379179013
scalar OsgEarthNet.uav[93] utilizationSecMaintenance 1753.6384079414
scalar OsgEarthNet.uav[93] utilizationSecCharge 18640
scalar OsgEarthNet.uav[93] utilizationSecIdle 235602.42267416
scalar OsgEarthNet.uav[93] utilizationEnergyMission 15072.696655273
scalar OsgEarthNet.uav[93] utilizationEnergyMaintenance 8101.8684158325
scalar OsgEarthNet.uav[93] utilizationEnergyCharge 23225.362792969
scalar OsgEarthNet.uav[93] utilizationEnergyOverdrawMission 0
scalar OsgEarthNet.uav[93] utilizationEnergyOverdrawMaintenance 0
scalar OsgEarthNet.uav[93] utilizationCountMissions 5
scalar OsgEarthNet.uav[93] utilizationCountManeuversMission 52
scalar OsgEarthNet.uav[93] utilizationCountManeuversMaintenance 10
scalar OsgEarthNet.uav[93] utilizationCountChargeState 5
scalar OsgEarthNet.uav[93] utilizationCountOverdrawnAfterMission 0
scalar OsgEarthNet.uav[93] utilizationCountIdleState 6
scalar OsgEarthNet.uav[93] utilizationFail 0
scalar OsgEarthNet.uav[93] simulationTime 259200
scalar OsgEarthNet.uav[94] utilizationSecMission 3380.4384768782
scalar OsgEarthNet.uav[94] utilizationSecMaintenance 1644.8525132965
scalar OsgEarthNet.uav[94] utilizationSecCharge 16016.077894618
scalar OsgEarthNet.uav[94] utilizationSecIdle 238158.63011521
scalar OsgEarthNet.uav[94] utilizationEnergyMission 15602.451263428
scalar OsgEarthNet.uav[94] utilizationEnergyMaintenance 8028.090511322
scalar OsgEarthNet.uav[94] utilizationEnergyCharge 20563.022338867
scalar OsgEarthNet.uav[94] utilizationEnergyOverdrawMission 0
scalar OsgEarthNet.uav[94] utilizationEnergyOverdrawMaintenance 0
scalar OsgEarthNet.uav[94] utilizationCountMissions 5
scalar OsgEarthNet.uav[94] utilizationCountManeuversMission 57
scalar OsgEarthNet.uav[94] utilizationCountManeuversMaintenance 10
scalar OsgEarthNet.uav[94] utilizationCountChargeState 5
scalar OsgEarthNet.uav[94] utilizationCountOverdrawnAfterMission 0
scalar OsgEarthNet.uav[94] utilizationCountIdleState 5
scalar OsgEarthNet.uav[94] utilizationFail 0
scalar OsgEarthNet.uav[94] simulationTime 259200
scalar OsgEarthNet.uav[95] utilizationSecMission 41626.797825207
scalar OsgEarthNet.uav[95] utilizationSecMaintenance 13509.188791464
scalar OsgEarthNet.uav[95] utilizationSecCharge 195400
scalar OsgEarthNet.uav[95] utilizationSecIdle 8664.0123833294
scalar OsgEarthNet.uav[95] utilizationEnergyMission 193072.73677826
scalar OsgEarthNet.uav[95] utilizationEnergyMaintenance 61252.121696472
scalar OsgEarthNet.uav[95] utilizationEnergyCharge 253870.96582031
scalar OsgEarthNet.uav[95] utilizationEnergyOverdrawMission 0
scalar OsgEarthNet.uav[95] utilizationEnergyOverdrawMaintenance 0
scalar OsgEarthNet.uav[95] utilizationCountMissions 54
scalar OsgEarthNet.uav[95] utilizationCountManeuversMission 720
scalar OsgEarthNet.uav[95] utilizationCountManeuversMaintenance 108
scalar OsgEarthNet.uav[95] utilizationCountChargeState 54
scalar OsgEarthNet.uav[95] utilizationCountOverdrawnAfterMission 0
scalar OsgEarthNet.uav[95] utilizationCountIdleState 25
scalar OsgEarthNet.uav[95] utilizationFail 0
scalar OsgEarthNet.uav[95] simulationTime 259200
scalar OsgEarthNet.uav[96] utilizationSecMission 13566.590673311
scalar OsgEarthNet.uav[96] utilizationSecMaintenance 4138.8239308513
scalar OsgEarthNet.uav[96] utilizationSecCharge 66470
scalar OsgEarthNet.uav[96] utilizationSecIdle 175024.58439584
scalar OsgEarthNet.uav[96] utilizationEnergyMission 63511.187727154
scalar OsgEarthNet.uav[96] utilizationEnergyMaintenance 19737.198112488
scalar OsgEarthNet.uav[96] utilizationEnergyCharge 82700.061523438
scalar OsgEarthNet.uav[96] utilizationEnergyOverdrawMission 0
scalar OsgEarthNet.uav[96] utilizationEnergyOverdrawMaintenance 0
scalar OsgEarthNet.uav[96] utilizationCountMissions 18
scalar OsgEarthNet.uav[96] utilizationCountManeuversMission 207
scalar OsgEarthNet.uav[96] utilizationCountManeuversMaintenance 37
scalar OsgEarthNet.uav[96] utilizationCountChargeState 18
scalar OsgEarthNet.uav[96] utilizationCountOverdrawnAfterMission 0
scalar OsgEarthNet.uav[96] utilizationCountIdleState 19
scalar OsgEarthNet.uav[96] utilizationFail 0
scalar OsgEarthNet.uav[96] simulationTime 259200
scalar OsgEarthNet.uav[97] utilizationSecMission 6199.8832812558
scalar OsgEarthNet.uav[97] utilizationSecMaintenance 2782.940865352
scalar OsgEarthNet.uav[97] utilizationSecCharge 33170
scalar OsgEarthNet.uav[97] utilizationSecIdle 217047.17485339
scalar OsgEarthNet.uav[97] utilizationEnergyMission 28096.103546143
scalar OsgEarthNet.uav[97] utilizationEnergyMaintenance 13465.368339539
scalar OsgEarthNet.uav[97] utilizationEnergyCharge 41561.479003906
scalar OsgEarthNet.uav[97] utilizationEnergyOverdrawMission 0
scalar OsgEarthNet.uav[97] utilizationEnergyOverdrawMaintenance 0
scalar OsgEarthNet.uav[97] utilizationCountMissions 9
scalar OsgEarthNet.uav[97] utilizationCountManeuversMission 107
scalar OsgEarthNet.uav[97] utilizationCountManeuversMaintenance 18
scalar OsgEarthNet.uav[97] utilizationCountChargeState 9
scalar OsgEarthNet.uav[97] utilizationCountOverdrawnAfterMission 0
scalar OsgEarthNet.uav[97] utilizationCountIdleState 7
scalar OsgEarthNet.uav[97] utilizationFail 0
scalar OsgEarthNet.uav[97] simulationTime 259200
scalar OsgEarthNet.uav[98] utilizationSecMission 41798.271948491
scalar OsgEarthNet.uav[98] utilizationSecMaintenance 13252.26870342
scalar OsgEarthNet.uav[98] utilizationSecCharge 194270
scalar OsgEarthNet.uav[98] utilizationSecIdle 9879.4583480894
scalar OsgEarthNet.uav[98] utilizationEnergyMission 192925.86007114
scalar OsgEarthNet.uav[98] utilizationEnergyMaintenance 61206.412010193
scalar OsgEarthNet.uav[98] utilizationEnergyCharge 251128.03271484
scalar OsgEarthNet.uav[98] utilizationEnergyOverdrawMission 0
scalar OsgEarthNet.uav[98] utilizationEnergyOverdrawMaintenance 0
scalar OsgEarthNet.uav[98] utilizationCountMissions 53
scalar OsgEarthNet.uav[98] utilizationCountManeuversMission 720
scalar OsgEarthNet.uav[98] utilizationCountManeuversMaintenance 107
scalar OsgEarthNet.uav[98] utilizationCountChargeState 53
scalar OsgEarthNet.uav[98] utilizationCountOverdrawnAfterMission 0
scalar OsgEarthNet.uav[98] utilizationCountIdleState 34
scalar OsgEarthNet.uav[98] utilizationFail 0
scalar OsgEarthNet.uav[98] simulationTime 259200
scalar OsgEarthNet.uav[99] utilizationSecMission 3982.6819725464
scalar OsgEarthNet.uav[99] utilizationSecMaintenance 2278.8375414442
scalar OsgEarthNet.uav[99] utilizationSecCharge 23110
scalar OsgEarthNet.uav[99] utilizationSecIdle 229828.47948601
scalar OsgEarthNet.uav[99] utilizationEnergyMission 18314.112388611
scalar OsgEarthNet.uav[99] utilizationEnergyMaintenance 10881.956012726
scalar OsgEarthNet.uav[99] utilizationEnergyCharge 29196.067871094
scalar OsgEarthNet.uav[99] utilizationEnergyOverdrawMission 0
scalar OsgEarthNet.uav[99] utilizationEnergyOverdrawMaintenance 0
scalar OsgEarthNet.uav[99] utilizationCountMissions 6
scalar OsgEarthNet.uav[99] utilizationCountManeuversMission 67
scalar OsgEarthNet.uav[99] utilizationCountManeuversMaintenance 12
scalar OsgEarthNet.uav[99] utilizationCountChargeState 6
scalar OsgEarthNet.uav[99] utilizationCountOverdrawnAfterMission 0
scalar OsgEarthNet.uav[99] utilizationCountIdleState 7
scalar OsgEarthNet.uav[99] utilizationFail 0
scalar OsgEarthNet.uav[99] simulationTime 259200
scalar OsgEarthNet.cs[0] usedPower 22551.633200784
scalar OsgEarthNet.cs[0] chargedPower 22551.633200784
scalar OsgEarthNet.cs[0] chargedMobileNodes 5
scalar OsgEarthNet.cs[0] reservations 5
scalar OsgEarthNet.cs[1] usedPower 970604.85731678
scalar OsgEarthNet.cs[1] chargedPower 970604.85731678
scalar OsgEarthNet.cs[1] chargedMobileNodes 205
scalar OsgEarthNet.cs[1] reservations 207
scalar OsgEarthNet.cs[2] usedPower 3104251.5249644
scalar OsgEarthNet.cs[2] chargedPower 3104251.5249644
scalar OsgEarthNet.cs[2] chargedMobileNodes 288
scalar OsgEarthNet.cs[2] reservations 660
scalar OsgEarthNet.cs[3] usedPower 0
scalar OsgEarthNet.cs[3] chargedPower 0
scalar OsgEarthNet.cs[3] chargedMobileNodes 0
scalar OsgEarthNet.cs[3] reservations 0
scalar OsgEarthNet.cs[4] usedPower 627339.59941417
scalar OsgEarthNet.cs[4] chargedPower 627339.59941417
scalar OsgEarthNet.cs[4] chargedMobileNodes 98
scalar OsgEarthNet.cs[4] reservations 135
scalar OsgEarthNet.cs[5] usedPower 224683.64209068
scalar OsgEarthNet.cs[5] chargedPower 224683.64209068
scalar OsgEarthNet.cs[5] chargedMobileNodes 37
scalar OsgEarthNet.cs[5] reservations 48
scalar OsgEarthNet.cs[6] usedPower 3135891.2339571
scalar OsgEarthNet.cs[6] chargedPower 3135891.2339571
scalar OsgEarthNet.cs[6] chargedMobileNodes 672
scalar OsgEarthNet.cs[6] reservations 684

