version 2
run Szenario_Hotel_Gabelbach-31-20180710-14:40:18-53428
attr configname Szenario_Hotel_Gabelbach
attr datetime 20180710-14:40:18
attr experiment Szenario_Hotel_Gabelbach
attr inifile omnetpp.ini
attr iterationvars "$replM=0, $replSearchM=1"
attr iterationvarsf replM=0,replSearchM=1-
attr measurement "$replM=0, $replSearchM=1"
attr network OsgEarthNet
attr processid 53428
attr repetition 15
attr replication #15
attr resultdir results
attr runnumber 31
attr seedset 31
itervar replM 0
itervar replSearchM 1
param *.osgEarthScene.scene "\"Szenario_Hotel_Gabelbach.earth\""
param *.playgroundLatitude 50.6830269
param *.playgroundLongitude 10.8538055
param *.playgroundWidth 3500m
param *.playgroundHeight 3500m
param *.numUAVs 100
param *.cs[0].posX 3537m
param *.cs[0].posY 965m
param *.cs[0].posZ 538m
param *.cs[1].posX 312m
param *.cs[1].posY 1262m
param *.cs[1].posZ 539m
param *.cs[2].posX 2185m
param *.cs[2].posY 3026m
param *.cs[2].posZ 777m
param *.cs[3].posX 10m
param *.cs[3].posY 2200m
param *.cs[3].posZ 560m
param *.cs[4].posX 750m
param *.cs[4].posY 200m
param *.cs[4].posZ 540m
param *.cs[5].posX 2450m
param *.cs[5].posY 180m
param *.cs[5].posZ 524m
param *.cs[6].posX 3140m
param *.cs[6].posY 1790m
param *.cs[6].posZ 606m
param *.numCSs 7
param *.uav[*].replacementMethod 0
param *.missionControl.replacementSearchMethod 1
param *.*.timeStep 10s
param *.uav[*].commandPreviewCommandCount 20
param *.missionControl.missionFiles "\"missions\\\\Szenario_WB_Hotel_Gabelbach_Mission_Hotel.waypoints,missions\\\\Szenario_WB_Hotel_Gabelbach_Mission_Kickelhahn.waypoints,missions\\\\Szenario_WB_Hotel_Gabelbach_Mission_Ilmenau_Sportplatz.waypoints,missions\\\\Szenario_WB_Hotel_Gabelbach_Mission_Manebach_Mitte.waypoints,missions\\\\Szenario_WB_Hotel_Gabelbach_Mission_Manebach_Sued.waypoints\""
param *.missionControl.missionFiles "\"missions\\\\Szenario_WB_Hotel_Gabelbach_Mission_Hotel.waypoints,missions\\\\Szenario_WB_Hotel_Gabelbach_Mission_Kickelhahn.waypoints,missions\\\\Szenario_WB_Hotel_Gabelbach_Mission_Ilmenau_Sportplatz.waypoints,missions\\\\Szenario_WB_Hotel_Gabelbach_Mission_Manebach_Mitte.waypoints,missions\\\\Szenario_WB_Hotel_Gabelbach_Mission_Manebach_Sued.waypoints,missions\\\\Szenario_WB_Hotel_Gabelbach_Hover_HoheSchlaufe.waypoints,missions\\\\Szenario_WB_Hotel_Gabelbach_Hover_Kickelhahn.waypoints,missions\\\\Szenario_WB_Hotel_Gabelbach_Hover_Gabelbachskopf.waypoints,missions\\\\Szenario_WB_Hotel_Gabelbach_Hover_Dachskopf.waypoints\""
param *.uav[0].startX 3537m
param *.uav[0].startY 965m
param *.uav[0].startZ 539m
param *.uav[1].startX 312m
param *.uav[1].startY 1262m
param *.uav[1].startZ 540m
param *.uav[2].startX 2185m
param *.uav[2].startY 3026m
param *.uav[2].startZ 778m
param *.uav[3].startX 3537m
param *.uav[3].startY 965m
param *.uav[3].startZ 539m
param *.uav[4].startX 312m
param *.uav[4].startY 1262m
param *.uav[4].startZ 540m
param *.uav[5].startX 2185m
param *.uav[5].startY 3026m
param *.uav[5].startZ 778m
param *.uav[6].startX 3537m
param *.uav[6].startY 965m
param *.uav[6].startZ 539m
param *.uav[7].startX 312m
param *.uav[7].startY 1262m
param *.uav[7].startZ 540m
param *.uav[8].startX 2185m
param *.uav[8].startY 3026m
param *.uav[8].startZ 778m
param *.uav[9].startX 3537m
param *.uav[9].startY 965m
param *.uav[9].startZ 539m
param *.uav[10].startX 3537m
param *.uav[10].startY 965m
param *.uav[10].startZ 539m
param *.uav[11].startX 312m
param *.uav[11].startY 1262m
param *.uav[11].startZ 540m
param *.uav[12].startX 2185m
param *.uav[12].startY 3026m
param *.uav[12].startZ 778m
param *.uav[13].startX 3537m
param *.uav[13].startY 965m
param *.uav[13].startZ 539m
param *.uav[14].startX 312m
param *.uav[14].startY 1262m
param *.uav[14].startZ 540m
param *.uav[15].startX 2185m
param *.uav[15].startY 3026m
param *.uav[15].startZ 778m
param *.uav[16].startX 3537m
param *.uav[16].startY 965m
param *.uav[16].startZ 539m
param *.uav[17].startX 312m
param *.uav[17].startY 1262m
param *.uav[17].startZ 540m
param *.uav[18].startX 2185m
param *.uav[18].startY 3026m
param *.uav[18].startZ 778m
param *.uav[19].startX 3537m
param *.uav[19].startY 965m
param *.uav[19].startZ 539m
param *.uav[20].startX 3537m
param *.uav[20].startY 965m
param *.uav[20].startZ 539m
param *.uav[21].startX 312m
param *.uav[21].startY 1262m
param *.uav[21].startZ 540m
param *.uav[22].startX 2185m
param *.uav[22].startY 3026m
param *.uav[22].startZ 778m
param *.uav[23].startX 3537m
param *.uav[23].startY 965m
param *.uav[23].startZ 539m
param *.uav[24].startX 312m
param *.uav[24].startY 1262m
param *.uav[24].startZ 540m
param *.uav[25].startX 2185m
param *.uav[25].startY 3026m
param *.uav[25].startZ 778m
param *.uav[26].startX 3537m
param *.uav[26].startY 965m
param *.uav[26].startZ 539m
param *.uav[27].startX 312m
param *.uav[27].startY 1262m
param *.uav[27].startZ 540m
param *.uav[28].startX 2185m
param *.uav[28].startY 3026m
param *.uav[28].startZ 778m
param *.uav[29].startX 3537m
param *.uav[29].startY 965m
param *.uav[29].startZ 539m
param *.uav[30].startX 3537m
param *.uav[30].startY 965m
param *.uav[30].startZ 539m
param *.uav[31].startX 312m
param *.uav[31].startY 1262m
param *.uav[31].startZ 540m
param *.uav[32].startX 2185m
param *.uav[32].startY 3026m
param *.uav[32].startZ 778m
param *.uav[33].startX 3537m
param *.uav[33].startY 965m
param *.uav[33].startZ 539m
param *.uav[34].startX 312m
param *.uav[34].startY 1262m
param *.uav[34].startZ 540m
param *.uav[35].startX 2185m
param *.uav[35].startY 3026m
param *.uav[35].startZ 778m
param *.uav[36].startX 3537m
param *.uav[36].startY 965m
param *.uav[36].startZ 539m
param *.uav[37].startX 312m
param *.uav[37].startY 1262m
param *.uav[37].startZ 540m
param *.uav[38].startX 2185m
param *.uav[38].startY 3026m
param *.uav[38].startZ 778m
param *.uav[39].startX 3537m
param *.uav[39].startY 965m
param *.uav[39].startZ 539m
param *.uav[40].startX 3537m
param *.uav[40].startY 965m
param *.uav[40].startZ 539m
param *.uav[41].startX 312m
param *.uav[41].startY 1262m
param *.uav[41].startZ 540m
param *.uav[42].startX 2185m
param *.uav[42].startY 3026m
param *.uav[42].startZ 778m
param *.uav[43].startX 3537m
param *.uav[43].startY 965m
param *.uav[43].startZ 539m
param *.uav[44].startX 312m
param *.uav[44].startY 1262m
param *.uav[44].startZ 540m
param *.uav[45].startX 2185m
param *.uav[45].startY 3026m
param *.uav[45].startZ 778m
param *.uav[46].startX 3537m
param *.uav[46].startY 965m
param *.uav[46].startZ 539m
param *.uav[47].startX 312m
param *.uav[47].startY 1262m
param *.uav[47].startZ 540m
param *.uav[48].startX 2185m
param *.uav[48].startY 3026m
param *.uav[48].startZ 778m
param *.uav[49].startX 3537m
param *.uav[49].startY 965m
param *.uav[49].startZ 539m
param *.uav[50].startX 3537m
param *.uav[50].startY 965m
param *.uav[50].startZ 539m
param *.uav[51].startX 312m
param *.uav[51].startY 1262m
param *.uav[51].startZ 540m
param *.uav[52].startX 2185m
param *.uav[52].startY 3026m
param *.uav[52].startZ 778m
param *.uav[53].startX 3537m
param *.uav[53].startY 965m
param *.uav[53].startZ 539m
param *.uav[54].startX 312m
param *.uav[54].startY 1262m
param *.uav[54].startZ 540m
param *.uav[55].startX 2185m
param *.uav[55].startY 3026m
param *.uav[55].startZ 778m
param *.uav[56].startX 3537m
param *.uav[56].startY 965m
param *.uav[56].startZ 539m
param *.uav[57].startX 312m
param *.uav[57].startY 1262m
param *.uav[57].startZ 540m
param *.uav[58].startX 2185m
param *.uav[58].startY 3026m
param *.uav[58].startZ 778m
param *.uav[59].startX 3537m
param *.uav[59].startY 965m
param *.uav[59].startZ 539m
param *.uav[60].startX 3537m
param *.uav[60].startY 965m
param *.uav[60].startZ 539m
param *.uav[61].startX 312m
param *.uav[61].startY 1262m
param *.uav[61].startZ 540m
param *.uav[62].startX 2185m
param *.uav[62].startY 3026m
param *.uav[62].startZ 778m
param *.uav[63].startX 3537m
param *.uav[63].startY 965m
param *.uav[63].startZ 539m
param *.uav[64].startX 312m
param *.uav[64].startY 1262m
param *.uav[64].startZ 540m
param *.uav[65].startX 2185m
param *.uav[65].startY 3026m
param *.uav[65].startZ 778m
param *.uav[66].startX 3537m
param *.uav[66].startY 965m
param *.uav[66].startZ 539m
param *.uav[67].startX 312m
param *.uav[67].startY 1262m
param *.uav[67].startZ 540m
param *.uav[68].startX 2185m
param *.uav[68].startY 3026m
param *.uav[68].startZ 778m
param *.uav[69].startX 3537m
param *.uav[69].startY 965m
param *.uav[69].startZ 539m
param *.uav[70].startX 3537m
param *.uav[70].startY 965m
param *.uav[70].startZ 539m
param *.uav[71].startX 312m
param *.uav[71].startY 1262m
param *.uav[71].startZ 540m
param *.uav[72].startX 2185m
param *.uav[72].startY 3026m
param *.uav[72].startZ 778m
param *.uav[73].startX 3537m
param *.uav[73].startY 965m
param *.uav[73].startZ 539m
param *.uav[74].startX 312m
param *.uav[74].startY 1262m
param *.uav[74].startZ 540m
param *.uav[75].startX 2185m
param *.uav[75].startY 3026m
param *.uav[75].startZ 778m
param *.uav[76].startX 3537m
param *.uav[76].startY 965m
param *.uav[76].startZ 539m
param *.uav[77].startX 312m
param *.uav[77].startY 1262m
param *.uav[77].startZ 540m
param *.uav[78].startX 2185m
param *.uav[78].startY 3026m
param *.uav[78].startZ 778m
param *.uav[79].startX 3537m
param *.uav[79].startY 965m
param *.uav[79].startZ 539m
param *.uav[80].startX 3537m
param *.uav[80].startY 965m
param *.uav[80].startZ 539m
param *.uav[81].startX 312m
param *.uav[81].startY 1262m
param *.uav[81].startZ 540m
param *.uav[82].startX 2185m
param *.uav[82].startY 3026m
param *.uav[82].startZ 778m
param *.uav[83].startX 3537m
param *.uav[83].startY 965m
param *.uav[83].startZ 539m
param *.uav[84].startX 312m
param *.uav[84].startY 1262m
param *.uav[84].startZ 540m
param *.uav[85].startX 2185m
param *.uav[85].startY 3026m
param *.uav[85].startZ 778m
param *.uav[86].startX 3537m
param *.uav[86].startY 965m
param *.uav[86].startZ 539m
param *.uav[87].startX 312m
param *.uav[87].startY 1262m
param *.uav[87].startZ 540m
param *.uav[88].startX 2185m
param *.uav[88].startY 3026m
param *.uav[88].startZ 778m
param *.uav[89].startX 3537m
param *.uav[89].startY 965m
param *.uav[89].startZ 539m
param *.uav[90].startX 3537m
param *.uav[90].startY 965m
param *.uav[90].startZ 539m
param *.uav[91].startX 312m
param *.uav[91].startY 1262m
param *.uav[91].startZ 540m
param *.uav[92].startX 2185m
param *.uav[92].startY 3026m
param *.uav[92].startZ 778m
param *.uav[93].startX 3537m
param *.uav[93].startY 965m
param *.uav[93].startZ 539m
param *.uav[94].startX 312m
param *.uav[94].startY 1262m
param *.uav[94].startZ 540m
param *.uav[95].startX 2185m
param *.uav[95].startY 3026m
param *.uav[95].startZ 778m
param *.uav[96].startX 3537m
param *.uav[96].startY 965m
param *.uav[96].startZ 539m
param *.uav[97].startX 312m
param *.uav[97].startY 1262m
param *.uav[97].startZ 540m
param *.uav[98].startX 2185m
param *.uav[98].startY 3026m
param *.uav[98].startZ 778m
param *.uav[99].startX 3537m
param *.uav[99].startY 965m
param *.uav[99].startZ 539m
param *.osgEarthScene.scene "\"boston.earth\""
param *.playgroundLatitude 42.3558
param *.playgroundLongitude -71.0677
param *.playgroundWidth 400m
param *.playgroundHeight 200m
param *.channelController.connectionColor "\"#0000FF40\""
param *.channelController.showConnections false
param *.uav[*].modelURL "\"quadrocopter.small.obj.15.scale.0,0,90.rot\""
param *.uav[*].labelColor "\"#FF7C00CC\""
param *.uav[*].label2Color "\"#FF7C00EE\""
param *.uav[*].batteryCapacity 5200mAh
param *.uav[*].batteryRemaining uav[index].batteryCapacity
param *.uav[*].predictionQuantile 0.95
param *.uav[*].replacementMethod 2
param *.uav[*].weightedSumWeight 0.5
param *.cs[*].modelURL "\"chargingstation_v1.osgt.2.scale.0,0,0.rot.0,0,-15e-1.trans\""
param *.cs[*].spotsWaiting 999
param *.cs[*].spotsCharging 999
param *.cs[*].chargeEffectivenessPercentage 100
param *.cs[*].nonLinearPhaseStartPercentage 85
param *.cs[*].chargeCurrent 6.0A
param *.cs[*].prioritizeFastCharge true
param *.missionControl.replacementSearchMethod 0
param *.*.timeStep 9s

scalar OsgEarthNet.uav[0] utilizationSecMission 2271.4550326388
scalar OsgEarthNet.uav[0] utilizationSecMaintenance 852.82074823063
scalar OsgEarthNet.uav[0] utilizationSecCharge 8383.9079270818
scalar OsgEarthNet.uav[0] utilizationSecIdle 247691.81529205
scalar OsgEarthNet.uav[0] utilizationEnergyMission 10121.88866806
scalar OsgEarthNet.uav[0] utilizationEnergyMaintenance 4328.8681182861
scalar OsgEarthNet.uav[0] utilizationEnergyCharge 10877.162414551
scalar OsgEarthNet.uav[0] utilizationEnergyOverdrawMission 0
scalar OsgEarthNet.uav[0] utilizationEnergyOverdrawMaintenance 0
scalar OsgEarthNet.uav[0] utilizationCountMissions 3
scalar OsgEarthNet.uav[0] utilizationCountManeuversMission 35
scalar OsgEarthNet.uav[0] utilizationCountManeuversMaintenance 6
scalar OsgEarthNet.uav[0] utilizationCountChargeState 3
scalar OsgEarthNet.uav[0] utilizationCountOverdrawnAfterMission 0
scalar OsgEarthNet.uav[0] utilizationCountIdleState 3
scalar OsgEarthNet.uav[0] utilizationFail 0
scalar OsgEarthNet.uav[0] simulationTime 259200
scalar OsgEarthNet.uav[1] utilizationSecMission 896.35009812453
scalar OsgEarthNet.uav[1] utilizationSecMaintenance 208.43309417374
scalar OsgEarthNet.uav[1] utilizationSecCharge 3980
scalar OsgEarthNet.uav[1] utilizationSecIdle 254115.2158077
scalar OsgEarthNet.uav[1] utilizationEnergyMission 3878.7422027588
scalar OsgEarthNet.uav[1] utilizationEnergyMaintenance 1199.0395736694
scalar OsgEarthNet.uav[1] utilizationEnergyCharge 5077.7841796875
scalar OsgEarthNet.uav[1] utilizationEnergyOverdrawMission 0
scalar OsgEarthNet.uav[1] utilizationEnergyOverdrawMaintenance 0
scalar OsgEarthNet.uav[1] utilizationCountMissions 1
scalar OsgEarthNet.uav[1] utilizationCountManeuversMission 15
scalar OsgEarthNet.uav[1] utilizationCountManeuversMaintenance 2
scalar OsgEarthNet.uav[1] utilizationCountChargeState 1
scalar OsgEarthNet.uav[1] utilizationCountOverdrawnAfterMission 0
scalar OsgEarthNet.uav[1] utilizationCountIdleState 2
scalar OsgEarthNet.uav[1] utilizationFail 0
scalar OsgEarthNet.uav[1] simulationTime 259200
scalar OsgEarthNet.uav[2] utilizationSecMission 2395.8299951204
scalar OsgEarthNet.uav[2] utilizationSecMaintenance 858.34800820063
scalar OsgEarthNet.uav[2] utilizationSecCharge 8052.8763157011
scalar OsgEarthNet.uav[2] utilizationSecIdle 247892.94468098
scalar OsgEarthNet.uav[2] utilizationEnergyMission 10742.85533905
scalar OsgEarthNet.uav[2] utilizationEnergyMaintenance 3922.0844154358
scalar OsgEarthNet.uav[2] utilizationEnergyCharge 10269.602416992
scalar OsgEarthNet.uav[2] utilizationEnergyOverdrawMission 0
scalar OsgEarthNet.uav[2] utilizationEnergyOverdrawMaintenance 0
scalar OsgEarthNet.uav[2] utilizationCountMissions 3
scalar OsgEarthNet.uav[2] utilizationCountManeuversMission 37
scalar OsgEarthNet.uav[2] utilizationCountManeuversMaintenance 6
scalar OsgEarthNet.uav[2] utilizationCountChargeState 3
scalar OsgEarthNet.uav[2] utilizationCountOverdrawnAfterMission 0
scalar OsgEarthNet.uav[2] utilizationCountIdleState 3
scalar OsgEarthNet.uav[2] utilizationFail 0
scalar OsgEarthNet.uav[2] simulationTime 259200
scalar OsgEarthNet.uav[3] utilizationSecMission 6676.0256940337
scalar OsgEarthNet.uav[3] utilizationSecMaintenance 2128.913839793
scalar OsgEarthNet.uav[3] utilizationSecCharge 30615.730354552
scalar OsgEarthNet.uav[3] utilizationSecIdle 219779.32911162
scalar OsgEarthNet.uav[3] utilizationEnergyMission 30692.244110107
scalar OsgEarthNet.uav[3] utilizationEnergyMaintenance 10062.253929138
scalar OsgEarthNet.uav[3] utilizationEnergyCharge 38488.167724609
scalar OsgEarthNet.uav[3] utilizationEnergyOverdrawMission 0
scalar OsgEarthNet.uav[3] utilizationEnergyOverdrawMaintenance 0
scalar OsgEarthNet.uav[3] utilizationCountMissions 9
scalar OsgEarthNet.uav[3] utilizationCountManeuversMission 103
scalar OsgEarthNet.uav[3] utilizationCountManeuversMaintenance 18
scalar OsgEarthNet.uav[3] utilizationCountChargeState 9
scalar OsgEarthNet.uav[3] utilizationCountOverdrawnAfterMission 0
scalar OsgEarthNet.uav[3] utilizationCountIdleState 9
scalar OsgEarthNet.uav[3] utilizationFail 0
scalar OsgEarthNet.uav[3] simulationTime 259200
scalar OsgEarthNet.uav[4] utilizationSecMission 6112.4786145478
scalar OsgEarthNet.uav[4] utilizationSecMaintenance 3778.7407251317
scalar OsgEarthNet.uav[4] utilizationSecCharge 35327.475597298
scalar OsgEarthNet.uav[4] utilizationSecIdle 213981.30406302
scalar OsgEarthNet.uav[4] utilizationEnergyMission 28823.061882019
scalar OsgEarthNet.uav[4] utilizationEnergyMaintenance 17581.719120026
scalar OsgEarthNet.uav[4] utilizationEnergyCharge 44952.829833984
scalar OsgEarthNet.uav[4] utilizationEnergyOverdrawMission 0
scalar OsgEarthNet.uav[4] utilizationEnergyOverdrawMaintenance 0
scalar OsgEarthNet.uav[4] utilizationCountMissions 10
scalar OsgEarthNet.uav[4] utilizationCountManeuversMission 105
scalar OsgEarthNet.uav[4] utilizationCountManeuversMaintenance 20
scalar OsgEarthNet.uav[4] utilizationCountChargeState 10
scalar OsgEarthNet.uav[4] utilizationCountOverdrawnAfterMission 0
scalar OsgEarthNet.uav[4] utilizationCountIdleState 10
scalar OsgEarthNet.uav[4] utilizationFail 0
scalar OsgEarthNet.uav[4] simulationTime 259200
scalar OsgEarthNet.uav[5] utilizationSecMission 7477.1055173102
scalar OsgEarthNet.uav[5] utilizationSecMaintenance 2513.9888642187
scalar OsgEarthNet.uav[5] utilizationSecCharge 36603.841843266
scalar OsgEarthNet.uav[5] utilizationSecIdle 212605.06277521
scalar OsgEarthNet.uav[5] utilizationEnergyMission 34509.515724182
scalar OsgEarthNet.uav[5] utilizationEnergyMaintenance 12156.887870789
scalar OsgEarthNet.uav[5] utilizationEnergyCharge 46451.089355469
scalar OsgEarthNet.uav[5] utilizationEnergyOverdrawMission 0
scalar OsgEarthNet.uav[5] utilizationEnergyOverdrawMaintenance 0
scalar OsgEarthNet.uav[5] utilizationCountMissions 10
scalar OsgEarthNet.uav[5] utilizationCountManeuversMission 115
scalar OsgEarthNet.uav[5] utilizationCountManeuversMaintenance 20
scalar OsgEarthNet.uav[5] utilizationCountChargeState 10
scalar OsgEarthNet.uav[5] utilizationCountOverdrawnAfterMission 0
scalar OsgEarthNet.uav[5] utilizationCountIdleState 9
scalar OsgEarthNet.uav[5] utilizationFail 0
scalar OsgEarthNet.uav[5] simulationTime 259200
scalar OsgEarthNet.uav[6] utilizationSecMission 9749.4525102895
scalar OsgEarthNet.uav[6] utilizationSecMaintenance 2972.6204232802
scalar OsgEarthNet.uav[6] utilizationSecCharge 46290.475414306
scalar OsgEarthNet.uav[6] utilizationSecIdle 200187.45065212
scalar OsgEarthNet.uav[6] utilizationEnergyMission 45131.112411499
scalar OsgEarthNet.uav[6] utilizationEnergyMaintenance 14342.943763733
scalar OsgEarthNet.uav[6] utilizationEnergyCharge 58516.8359375
scalar OsgEarthNet.uav[6] utilizationEnergyOverdrawMission 0
scalar OsgEarthNet.uav[6] utilizationEnergyOverdrawMaintenance 0
scalar OsgEarthNet.uav[6] utilizationCountMissions 13
scalar OsgEarthNet.uav[6] utilizationCountManeuversMission 149
scalar OsgEarthNet.uav[6] utilizationCountManeuversMaintenance 26
scalar OsgEarthNet.uav[6] utilizationCountChargeState 13
scalar OsgEarthNet.uav[6] utilizationCountOverdrawnAfterMission 0
scalar OsgEarthNet.uav[6] utilizationCountIdleState 13
scalar OsgEarthNet.uav[6] utilizationFail 0
scalar OsgEarthNet.uav[6] simulationTime 259200
scalar OsgEarthNet.uav[7] utilizationSecMission 1324.409136157
scalar OsgEarthNet.uav[7] utilizationSecMaintenance 673.35014482188
scalar OsgEarthNet.uav[7] utilizationSecCharge 7720
scalar OsgEarthNet.uav[7] utilizationSecIdle 249482.23971902
scalar OsgEarthNet.uav[7] utilizationEnergyMission 6161.1727142334
scalar OsgEarthNet.uav[7] utilizationEnergyMaintenance 3629.3568344116
scalar OsgEarthNet.uav[7] utilizationEnergyCharge 9790.529296875
scalar OsgEarthNet.uav[7] utilizationEnergyOverdrawMission 0
scalar OsgEarthNet.uav[7] utilizationEnergyOverdrawMaintenance 0
scalar OsgEarthNet.uav[7] utilizationCountMissions 2
scalar OsgEarthNet.uav[7] utilizationCountManeuversMission 20
scalar OsgEarthNet.uav[7] utilizationCountManeuversMaintenance 4
scalar OsgEarthNet.uav[7] utilizationCountChargeState 2
scalar OsgEarthNet.uav[7] utilizationCountOverdrawnAfterMission 0
scalar OsgEarthNet.uav[7] utilizationCountIdleState 3
scalar OsgEarthNet.uav[7] utilizationFail 0
scalar OsgEarthNet.uav[7] simulationTime 259200
scalar OsgEarthNet.uav[8] utilizationSecMission 8356.1211839097
scalar OsgEarthNet.uav[8] utilizationSecMaintenance 2770.521668757
scalar OsgEarthNet.uav[8] utilizationSecCharge 41370
scalar OsgEarthNet.uav[8] utilizationSecIdle 206703.35614733
scalar OsgEarthNet.uav[8] utilizationEnergyMission 38801.789176941
scalar OsgEarthNet.uav[8] utilizationEnergyMaintenance 13450.059640851
scalar OsgEarthNet.uav[8] utilizationEnergyCharge 51811.775390625
scalar OsgEarthNet.uav[8] utilizationEnergyOverdrawMission 0
scalar OsgEarthNet.uav[8] utilizationEnergyOverdrawMaintenance 0
scalar OsgEarthNet.uav[8] utilizationCountMissions 11
scalar OsgEarthNet.uav[8] utilizationCountManeuversMission 126
scalar OsgEarthNet.uav[8] utilizationCountManeuversMaintenance 23
scalar OsgEarthNet.uav[8] utilizationCountChargeState 11
scalar OsgEarthNet.uav[8] utilizationCountOverdrawnAfterMission 0
scalar OsgEarthNet.uav[8] utilizationCountIdleState 12
scalar OsgEarthNet.uav[8] utilizationFail 0
scalar OsgEarthNet.uav[8] simulationTime 259200
scalar OsgEarthNet.uav[9] utilizationSecMission 9848.29072271
scalar OsgEarthNet.uav[9] utilizationSecMaintenance 3019.868151641
scalar OsgEarthNet.uav[9] utilizationSecCharge 44960
scalar OsgEarthNet.uav[9] utilizationSecIdle 201371.84012565
scalar OsgEarthNet.uav[9] utilizationEnergyMission 45894.022626315
scalar OsgEarthNet.uav[9] utilizationEnergyMaintenance 14577.532241821
scalar OsgEarthNet.uav[9] utilizationEnergyCharge 56322.635742188
scalar OsgEarthNet.uav[9] utilizationEnergyOverdrawMission 0
scalar OsgEarthNet.uav[9] utilizationEnergyOverdrawMaintenance 0
scalar OsgEarthNet.uav[9] utilizationCountMissions 12
scalar OsgEarthNet.uav[9] utilizationCountManeuversMission 151
scalar OsgEarthNet.uav[9] utilizationCountManeuversMaintenance 25
scalar OsgEarthNet.uav[9] utilizationCountChargeState 12
scalar OsgEarthNet.uav[9] utilizationCountOverdrawnAfterMission 0
scalar OsgEarthNet.uav[9] utilizationCountIdleState 13
scalar OsgEarthNet.uav[9] utilizationFail 0
scalar OsgEarthNet.uav[9] simulationTime 259200
scalar OsgEarthNet.uav[10] utilizationSecMission 1919.9597270486
scalar OsgEarthNet.uav[10] utilizationSecMaintenance 1051.7384158787
scalar OsgEarthNet.uav[10] utilizationSecCharge 11030
scalar OsgEarthNet.uav[10] utilizationSecIdle 245198.30085707
scalar OsgEarthNet.uav[10] utilizationEnergyMission 8714.1392593384
scalar OsgEarthNet.uav[10] utilizationEnergyMaintenance 5031.642074585
scalar OsgEarthNet.uav[10] utilizationEnergyCharge 13745.783203125
scalar OsgEarthNet.uav[10] utilizationEnergyOverdrawMission 0
scalar OsgEarthNet.uav[10] utilizationEnergyOverdrawMaintenance 0
scalar OsgEarthNet.uav[10] utilizationCountMissions 3
scalar OsgEarthNet.uav[10] utilizationCountManeuversMission 30
scalar OsgEarthNet.uav[10] utilizationCountManeuversMaintenance 6
scalar OsgEarthNet.uav[10] utilizationCountChargeState 3
scalar OsgEarthNet.uav[10] utilizationCountOverdrawnAfterMission 0
scalar OsgEarthNet.uav[10] utilizationCountIdleState 4
scalar OsgEarthNet.uav[10] utilizationFail 0
scalar OsgEarthNet.uav[10] simulationTime 259200
scalar OsgEarthNet.uav[11] utilizationSecMission 9154.3490520256
scalar OsgEarthNet.uav[11] utilizationSecMaintenance 3683.364601323
scalar OsgEarthNet.uav[11] utilizationSecCharge 47690
scalar OsgEarthNet.uav[11] utilizationSecIdle 198672.28534665
scalar OsgEarthNet.uav[11] utilizationEnergyMission 41760.972450256
scalar OsgEarthNet.uav[11] utilizationEnergyMaintenance 17429.636604309
scalar OsgEarthNet.uav[11] utilizationEnergyCharge 59190.603027344
scalar OsgEarthNet.uav[11] utilizationEnergyOverdrawMission 0
scalar OsgEarthNet.uav[11] utilizationEnergyOverdrawMaintenance 0
scalar OsgEarthNet.uav[11] utilizationCountMissions 13
scalar OsgEarthNet.uav[11] utilizationCountManeuversMission 143
scalar OsgEarthNet.uav[11] utilizationCountManeuversMaintenance 26
scalar OsgEarthNet.uav[11] utilizationCountChargeState 13
scalar OsgEarthNet.uav[11] utilizationCountOverdrawnAfterMission 0
scalar OsgEarthNet.uav[11] utilizationCountIdleState 14
scalar OsgEarthNet.uav[11] utilizationFail 0
scalar OsgEarthNet.uav[11] simulationTime 259200
scalar OsgEarthNet.uav[12] utilizationSecMission 43997.842798159
scalar OsgEarthNet.uav[12] utilizationSecMaintenance 14534.811011258
scalar OsgEarthNet.uav[12] utilizationSecCharge 194019.88145312
scalar OsgEarthNet.uav[12] utilizationSecIdle 6647.4637374618
scalar OsgEarthNet.uav[12] utilizationEnergyMission 202372.35050201
scalar OsgEarthNet.uav[12] utilizationEnergyMaintenance 67390.47636795
scalar OsgEarthNet.uav[12] utilizationEnergyCharge 268305.90698242
scalar OsgEarthNet.uav[12] utilizationEnergyOverdrawMission 0
scalar OsgEarthNet.uav[12] utilizationEnergyOverdrawMaintenance 0
scalar OsgEarthNet.uav[12] utilizationCountMissions 58
scalar OsgEarthNet.uav[12] utilizationCountManeuversMission 774
scalar OsgEarthNet.uav[12] utilizationCountManeuversMaintenance 116
scalar OsgEarthNet.uav[12] utilizationCountChargeState 58
scalar OsgEarthNet.uav[12] utilizationCountOverdrawnAfterMission 0
scalar OsgEarthNet.uav[12] utilizationCountIdleState 5
scalar OsgEarthNet.uav[12] utilizationFail 0
scalar OsgEarthNet.uav[12] simulationTime 259200
scalar OsgEarthNet.uav[13] utilizationSecMission 5028.1918349097
scalar OsgEarthNet.uav[13] utilizationSecMaintenance 1844.2613919284
scalar OsgEarthNet.uav[13] utilizationSecCharge 25660
scalar OsgEarthNet.uav[13] utilizationSecIdle 226667.54577316
scalar OsgEarthNet.uav[13] utilizationEnergyMission 23271.69203949
scalar OsgEarthNet.uav[13] utilizationEnergyMaintenance 8697.6478881836
scalar OsgEarthNet.uav[13] utilizationEnergyCharge 31969.342285156
scalar OsgEarthNet.uav[13] utilizationEnergyOverdrawMission 0
scalar OsgEarthNet.uav[13] utilizationEnergyOverdrawMaintenance 0
scalar OsgEarthNet.uav[13] utilizationCountMissions 7
scalar OsgEarthNet.uav[13] utilizationCountManeuversMission 78
scalar OsgEarthNet.uav[13] utilizationCountManeuversMaintenance 14
scalar OsgEarthNet.uav[13] utilizationCountChargeState 7
scalar OsgEarthNet.uav[13] utilizationCountOverdrawnAfterMission 0
scalar OsgEarthNet.uav[13] utilizationCountIdleState 8
scalar OsgEarthNet.uav[13] utilizationFail 0
scalar OsgEarthNet.uav[13] simulationTime 259200
scalar OsgEarthNet.uav[14] utilizationSecMission 8338.9635698515
scalar OsgEarthNet.uav[14] utilizationSecMaintenance 4787.0511541015
scalar OsgEarthNet.uav[14] utilizationSecCharge 48050
scalar OsgEarthNet.uav[14] utilizationSecIdle 198023.98427605
scalar OsgEarthNet.uav[14] utilizationEnergyMission 38636.281303406
scalar OsgEarthNet.uav[14] utilizationEnergyMaintenance 22254.35282135
scalar OsgEarthNet.uav[14] utilizationEnergyCharge 60890.647949219
scalar OsgEarthNet.uav[14] utilizationEnergyOverdrawMission 0
scalar OsgEarthNet.uav[14] utilizationEnergyOverdrawMaintenance 0
scalar OsgEarthNet.uav[14] utilizationCountMissions 13
scalar OsgEarthNet.uav[14] utilizationCountManeuversMission 142
scalar OsgEarthNet.uav[14] utilizationCountManeuversMaintenance 26
scalar OsgEarthNet.uav[14] utilizationCountChargeState 13
scalar OsgEarthNet.uav[14] utilizationCountOverdrawnAfterMission 0
scalar OsgEarthNet.uav[14] utilizationCountIdleState 12
scalar OsgEarthNet.uav[14] utilizationFail 0
scalar OsgEarthNet.uav[14] simulationTime 259200
scalar OsgEarthNet.uav[15] utilizationSecMission 4897.4355067258
scalar OsgEarthNet.uav[15] utilizationSecMaintenance 2050.8739985122
scalar OsgEarthNet.uav[15] utilizationSecCharge 25610
scalar OsgEarthNet.uav[15] utilizationSecIdle 226641.68949476
scalar OsgEarthNet.uav[15] utilizationEnergyMission 22380.766937256
scalar OsgEarthNet.uav[15] utilizationEnergyMaintenance 9554.6356201172
scalar OsgEarthNet.uav[15] utilizationEnergyCharge 31830.983886719
scalar OsgEarthNet.uav[15] utilizationEnergyOverdrawMission 0
scalar OsgEarthNet.uav[15] utilizationEnergyOverdrawMaintenance 0
scalar OsgEarthNet.uav[15] utilizationCountMissions 7
scalar OsgEarthNet.uav[15] utilizationCountManeuversMission 77
scalar OsgEarthNet.uav[15] utilizationCountManeuversMaintenance 14
scalar OsgEarthNet.uav[15] utilizationCountChargeState 7
scalar OsgEarthNet.uav[15] utilizationCountOverdrawnAfterMission 0
scalar OsgEarthNet.uav[15] utilizationCountIdleState 8
scalar OsgEarthNet.uav[15] utilizationFail 0
scalar OsgEarthNet.uav[15] simulationTime 259200
scalar OsgEarthNet.uav[16] utilizationSecMission 21322.176233835
scalar OsgEarthNet.uav[16] utilizationSecMaintenance 6536.7186856565
scalar OsgEarthNet.uav[16] utilizationSecCharge 104230
scalar OsgEarthNet.uav[16] utilizationSecIdle 127111.10408051
scalar OsgEarthNet.uav[16] utilizationEnergyMission 98924.359461861
scalar OsgEarthNet.uav[16] utilizationEnergyMaintenance 31458.831039429
scalar OsgEarthNet.uav[16] utilizationEnergyCharge 130255.39990234
scalar OsgEarthNet.uav[16] utilizationEnergyOverdrawMission 0
scalar OsgEarthNet.uav[16] utilizationEnergyOverdrawMaintenance 0
scalar OsgEarthNet.uav[16] utilizationCountMissions 28
scalar OsgEarthNet.uav[16] utilizationCountManeuversMission 329
scalar OsgEarthNet.uav[16] utilizationCountManeuversMaintenance 55
scalar OsgEarthNet.uav[16] utilizationCountChargeState 28
scalar OsgEarthNet.uav[16] utilizationCountOverdrawnAfterMission 0
scalar OsgEarthNet.uav[16] utilizationCountIdleState 29
scalar OsgEarthNet.uav[16] utilizationFail 0
scalar OsgEarthNet.uav[16] simulationTime 259200
scalar OsgEarthNet.uav[17] utilizationSecMission 5897.5817571089
scalar OsgEarthNet.uav[17] utilizationSecMaintenance 3019.6720178002
scalar OsgEarthNet.uav[17] utilizationSecCharge 33150
scalar OsgEarthNet.uav[17] utilizationSecIdle 217132.74522509
scalar OsgEarthNet.uav[17] utilizationEnergyMission 27454.300941467
scalar OsgEarthNet.uav[17] utilizationEnergyMaintenance 14667.974052429
scalar OsgEarthNet.uav[17] utilizationEnergyCharge 42122.268066406
scalar OsgEarthNet.uav[17] utilizationEnergyOverdrawMission 0
scalar OsgEarthNet.uav[17] utilizationEnergyOverdrawMaintenance 0
scalar OsgEarthNet.uav[17] utilizationCountMissions 9
scalar OsgEarthNet.uav[17] utilizationCountManeuversMission 98
scalar OsgEarthNet.uav[17] utilizationCountManeuversMaintenance 18
scalar OsgEarthNet.uav[17] utilizationCountChargeState 9
scalar OsgEarthNet.uav[17] utilizationCountOverdrawnAfterMission 0
scalar OsgEarthNet.uav[17] utilizationCountIdleState 7
scalar OsgEarthNet.uav[17] utilizationFail 0
scalar OsgEarthNet.uav[17] simulationTime 259200
scalar OsgEarthNet.uav[18] utilizationSecMission 44253.496575528
scalar OsgEarthNet.uav[18] utilizationSecMaintenance 14060.814746901
scalar OsgEarthNet.uav[18] utilizationSecCharge 194055.58875595
scalar OsgEarthNet.uav[18] utilizationSecIdle 6830.0989216219
scalar OsgEarthNet.uav[18] utilizationEnergyMission 205319.55887985
scalar OsgEarthNet.uav[18] utilizationEnergyMaintenance 66448.488670349
scalar OsgEarthNet.uav[18] utilizationEnergyCharge 270228.39111328
scalar OsgEarthNet.uav[18] utilizationEnergyOverdrawMission 0
scalar OsgEarthNet.uav[18] utilizationEnergyOverdrawMaintenance 0
scalar OsgEarthNet.uav[18] utilizationCountMissions 57
scalar OsgEarthNet.uav[18] utilizationCountManeuversMission 771
scalar OsgEarthNet.uav[18] utilizationCountManeuversMaintenance 114
scalar OsgEarthNet.uav[18] utilizationCountChargeState 57
scalar OsgEarthNet.uav[18] utilizationCountOverdrawnAfterMission 0
scalar OsgEarthNet.uav[18] utilizationCountIdleState 11
scalar OsgEarthNet.uav[18] utilizationFail 0
scalar OsgEarthNet.uav[18] simulationTime 259200
scalar OsgEarthNet.uav[19] utilizationSecMission 8506.6789885041
scalar OsgEarthNet.uav[19] utilizationSecMaintenance 3172.2972279508
scalar OsgEarthNet.uav[19] utilizationSecCharge 43730
scalar OsgEarthNet.uav[19] utilizationSecIdle 203791.02278355
scalar OsgEarthNet.uav[19] utilizationEnergyMission 38931.567520142
scalar OsgEarthNet.uav[19] utilizationEnergyMaintenance 15234.565670013
scalar OsgEarthNet.uav[19] utilizationEnergyCharge 54166.143066406
scalar OsgEarthNet.uav[19] utilizationEnergyOverdrawMission 0
scalar OsgEarthNet.uav[19] utilizationEnergyOverdrawMaintenance 0
scalar OsgEarthNet.uav[19] utilizationCountMissions 12
scalar OsgEarthNet.uav[19] utilizationCountManeuversMission 130
scalar OsgEarthNet.uav[19] utilizationCountManeuversMaintenance 24
scalar OsgEarthNet.uav[19] utilizationCountChargeState 12
scalar OsgEarthNet.uav[19] utilizationCountOverdrawnAfterMission 0
scalar OsgEarthNet.uav[19] utilizationCountIdleState 13
scalar OsgEarthNet.uav[19] utilizationFail 0
scalar OsgEarthNet.uav[19] simulationTime 259200
scalar OsgEarthNet.uav[20] utilizationSecMission 3394.8717317238
scalar OsgEarthNet.uav[20] utilizationSecMaintenance 1666.1958677808
scalar OsgEarthNet.uav[20] utilizationSecCharge 18710
scalar OsgEarthNet.uav[20] utilizationSecIdle 235428.9314005
scalar OsgEarthNet.uav[20] utilizationEnergyMission 15829.62412262
scalar OsgEarthNet.uav[20] utilizationEnergyMaintenance 7557.7476272583
scalar OsgEarthNet.uav[20] utilizationEnergyCharge 23387.375976562
scalar OsgEarthNet.uav[20] utilizationEnergyOverdrawMission 0
scalar OsgEarthNet.uav[20] utilizationEnergyOverdrawMaintenance 0
scalar OsgEarthNet.uav[20] utilizationCountMissions 5
scalar OsgEarthNet.uav[20] utilizationCountManeuversMission 53
scalar OsgEarthNet.uav[20] utilizationCountManeuversMaintenance 10
scalar OsgEarthNet.uav[20] utilizationCountChargeState 5
scalar OsgEarthNet.uav[20] utilizationCountOverdrawnAfterMission 0
scalar OsgEarthNet.uav[20] utilizationCountIdleState 6
scalar OsgEarthNet.uav[20] utilizationFail 0
scalar OsgEarthNet.uav[20] simulationTime 259200
scalar OsgEarthNet.uav[21] utilizationSecMission 4011.9714770239
scalar OsgEarthNet.uav[21] utilizationSecMaintenance 2099.4337262899
scalar OsgEarthNet.uav[21] utilizationSecCharge 22580
scalar OsgEarthNet.uav[21] utilizationSecIdle 230508.59379669
scalar OsgEarthNet.uav[21] utilizationEnergyMission 18232.426223755
scalar OsgEarthNet.uav[21] utilizationEnergyMaintenance 10171.912086487
scalar OsgEarthNet.uav[21] utilizationEnergyCharge 28404.334960938
scalar OsgEarthNet.uav[21] utilizationEnergyOverdrawMission 0
scalar OsgEarthNet.uav[21] utilizationEnergyOverdrawMaintenance 0
scalar OsgEarthNet.uav[21] utilizationCountMissions 6
scalar OsgEarthNet.uav[21] utilizationCountManeuversMission 66
scalar OsgEarthNet.uav[21] utilizationCountManeuversMaintenance 12
scalar OsgEarthNet.uav[21] utilizationCountChargeState 6
scalar OsgEarthNet.uav[21] utilizationCountOverdrawnAfterMission 0
scalar OsgEarthNet.uav[21] utilizationCountIdleState 7
scalar OsgEarthNet.uav[21] utilizationFail 0
scalar OsgEarthNet.uav[21] simulationTime 259200
scalar OsgEarthNet.uav[22] utilizationSecMission 9424.348349034
scalar OsgEarthNet.uav[22] utilizationSecMaintenance 3340.0551359284
scalar OsgEarthNet.uav[22] utilizationSecCharge 47420
scalar OsgEarthNet.uav[22] utilizationSecIdle 199015.59551504
scalar OsgEarthNet.uav[22] utilizationEnergyMission 43001.830291748
scalar OsgEarthNet.uav[22] utilizationEnergyMaintenance 15808.22561264
scalar OsgEarthNet.uav[22] utilizationEnergyCharge 58810.041992188
scalar OsgEarthNet.uav[22] utilizationEnergyOverdrawMission 0
scalar OsgEarthNet.uav[22] utilizationEnergyOverdrawMaintenance 0
scalar OsgEarthNet.uav[22] utilizationCountMissions 13
scalar OsgEarthNet.uav[22] utilizationCountManeuversMission 142
scalar OsgEarthNet.uav[22] utilizationCountManeuversMaintenance 26
scalar OsgEarthNet.uav[22] utilizationCountChargeState 13
scalar OsgEarthNet.uav[22] utilizationCountOverdrawnAfterMission 0
scalar OsgEarthNet.uav[22] utilizationCountIdleState 14
scalar OsgEarthNet.uav[22] utilizationFail 0
scalar OsgEarthNet.uav[22] simulationTime 259200
scalar OsgEarthNet.uav[23] utilizationSecMission 5887.1306201992
scalar OsgEarthNet.uav[23] utilizationSecMaintenance 3249.6443007548
scalar OsgEarthNet.uav[23] utilizationSecCharge 33120
scalar OsgEarthNet.uav[23] utilizationSecIdle 216943.22407905
scalar OsgEarthNet.uav[23] utilizationEnergyMission 27320.421661377
scalar OsgEarthNet.uav[23] utilizationEnergyMaintenance 14804.670085907
scalar OsgEarthNet.uav[23] utilizationEnergyCharge 42125.096679688
scalar OsgEarthNet.uav[23] utilizationEnergyOverdrawMission 0
scalar OsgEarthNet.uav[23] utilizationEnergyOverdrawMaintenance 0
scalar OsgEarthNet.uav[23] utilizationCountMissions 9
scalar OsgEarthNet.uav[23] utilizationCountManeuversMission 97
scalar OsgEarthNet.uav[23] utilizationCountManeuversMaintenance 18
scalar OsgEarthNet.uav[23] utilizationCountChargeState 9
scalar OsgEarthNet.uav[23] utilizationCountOverdrawnAfterMission 0
scalar OsgEarthNet.uav[23] utilizationCountIdleState 9
scalar OsgEarthNet.uav[23] utilizationFail 0
scalar OsgEarthNet.uav[23] simulationTime 259200
scalar OsgEarthNet.uav[24] utilizationSecMission 5860.8988842574
scalar OsgEarthNet.uav[24] utilizationSecMaintenance 3162.8868706159
scalar OsgEarthNet.uav[24] utilizationSecCharge 33100
scalar OsgEarthNet.uav[24] utilizationSecIdle 217076.21324513
scalar OsgEarthNet.uav[24] utilizationEnergyMission 26836.63973999
scalar OsgEarthNet.uav[24] utilizationEnergyMaintenance 15063.20891571
scalar OsgEarthNet.uav[24] utilizationEnergyCharge 41899.842285156
scalar OsgEarthNet.uav[24] utilizationEnergyOverdrawMission 0
scalar OsgEarthNet.uav[24] utilizationEnergyOverdrawMaintenance 0
scalar OsgEarthNet.uav[24] utilizationCountMissions 9
scalar OsgEarthNet.uav[24] utilizationCountManeuversMission 99
scalar OsgEarthNet.uav[24] utilizationCountManeuversMaintenance 18
scalar OsgEarthNet.uav[24] utilizationCountChargeState 9
scalar OsgEarthNet.uav[24] utilizationCountOverdrawnAfterMission 0
scalar OsgEarthNet.uav[24] utilizationCountIdleState 8
scalar OsgEarthNet.uav[24] utilizationFail 0
scalar OsgEarthNet.uav[24] simulationTime 259200
scalar OsgEarthNet.uav[25] utilizationSecMission 18308.274572522
scalar OsgEarthNet.uav[25] utilizationSecMaintenance 5395.6021944992
scalar OsgEarthNet.uav[25] utilizationSecCharge 88520.098962775
scalar OsgEarthNet.uav[25] utilizationSecIdle 146976.0232702
scalar OsgEarthNet.uav[25] utilizationEnergyMission 84953.792884827
scalar OsgEarthNet.uav[25] utilizationEnergyMaintenance 26036.888286591
scalar OsgEarthNet.uav[25] utilizationEnergyCharge 110556.51660156
scalar OsgEarthNet.uav[25] utilizationEnergyOverdrawMission 0
scalar OsgEarthNet.uav[25] utilizationEnergyOverdrawMaintenance 0
scalar OsgEarthNet.uav[25] utilizationCountMissions 24
scalar OsgEarthNet.uav[25] utilizationCountManeuversMission 278
scalar OsgEarthNet.uav[25] utilizationCountManeuversMaintenance 48
scalar OsgEarthNet.uav[25] utilizationCountChargeState 24
scalar OsgEarthNet.uav[25] utilizationCountOverdrawnAfterMission 0
scalar OsgEarthNet.uav[25] utilizationCountIdleState 24
scalar OsgEarthNet.uav[25] utilizationFail 0
scalar OsgEarthNet.uav[25] simulationTime 259200
scalar OsgEarthNet.uav[26] utilizationSecMission 18710.340372075
scalar OsgEarthNet.uav[26] utilizationSecMaintenance 5878.0938449732
scalar OsgEarthNet.uav[26] utilizationSecCharge 91785.384850978
scalar OsgEarthNet.uav[26] utilizationSecIdle 142826.17993197
scalar OsgEarthNet.uav[26] utilizationEnergyMission 86693.020767212
scalar OsgEarthNet.uav[26] utilizationEnergyMaintenance 28432.088859558
scalar OsgEarthNet.uav[26] utilizationEnergyCharge 114990.70361328
scalar OsgEarthNet.uav[26] utilizationEnergyOverdrawMission 0
scalar OsgEarthNet.uav[26] utilizationEnergyOverdrawMaintenance 0
scalar OsgEarthNet.uav[26] utilizationCountMissions 25
scalar OsgEarthNet.uav[26] utilizationCountManeuversMission 289
scalar OsgEarthNet.uav[26] utilizationCountManeuversMaintenance 50
scalar OsgEarthNet.uav[26] utilizationCountChargeState 25
scalar OsgEarthNet.uav[26] utilizationCountOverdrawnAfterMission 0
scalar OsgEarthNet.uav[26] utilizationCountIdleState 25
scalar OsgEarthNet.uav[26] utilizationFail 0
scalar OsgEarthNet.uav[26] simulationTime 259200
scalar OsgEarthNet.uav[27] utilizationSecMission 13102.846931942
scalar OsgEarthNet.uav[27] utilizationSecMaintenance 5902.875725728
scalar OsgEarthNet.uav[27] utilizationSecCharge 70730
scalar OsgEarthNet.uav[27] utilizationSecIdle 169464.27634233
scalar OsgEarthNet.uav[27] utilizationEnergyMission 61776.794967651
scalar OsgEarthNet.uav[27] utilizationEnergyMaintenance 27886.076663971
scalar OsgEarthNet.uav[27] utilizationEnergyCharge 89662.869628906
scalar OsgEarthNet.uav[27] utilizationEnergyOverdrawMission 0
scalar OsgEarthNet.uav[27] utilizationEnergyOverdrawMaintenance 0
scalar OsgEarthNet.uav[27] utilizationCountMissions 19
scalar OsgEarthNet.uav[27] utilizationCountManeuversMission 223
scalar OsgEarthNet.uav[27] utilizationCountManeuversMaintenance 37
scalar OsgEarthNet.uav[27] utilizationCountChargeState 19
scalar OsgEarthNet.uav[27] utilizationCountOverdrawnAfterMission 0
scalar OsgEarthNet.uav[27] utilizationCountIdleState 17
scalar OsgEarthNet.uav[27] utilizationFail 0
scalar OsgEarthNet.uav[27] simulationTime 259200
scalar OsgEarthNet.uav[28] utilizationSecMission 488.02082019647
scalar OsgEarthNet.uav[28] utilizationSecMaintenance 546.76793432541
scalar OsgEarthNet.uav[28] utilizationSecCharge 3790
scalar OsgEarthNet.uav[28] utilizationSecIdle 254375.21024548
scalar OsgEarthNet.uav[28] utilizationEnergyMission 2373.4124450684
scalar OsgEarthNet.uav[28] utilizationEnergyMaintenance 2408.4164543152
scalar OsgEarthNet.uav[28] utilizationEnergyCharge 4781.8251953125
scalar OsgEarthNet.uav[28] utilizationEnergyOverdrawMission 0
scalar OsgEarthNet.uav[28] utilizationEnergyOverdrawMaintenance 0
scalar OsgEarthNet.uav[28] utilizationCountMissions 1
scalar OsgEarthNet.uav[28] utilizationCountManeuversMission 8
scalar OsgEarthNet.uav[28] utilizationCountManeuversMaintenance 2
scalar OsgEarthNet.uav[28] utilizationCountChargeState 1
scalar OsgEarthNet.uav[28] utilizationCountOverdrawnAfterMission 0
scalar OsgEarthNet.uav[28] utilizationCountIdleState 2
scalar OsgEarthNet.uav[28] utilizationFail 0
scalar OsgEarthNet.uav[28] simulationTime 259200
scalar OsgEarthNet.uav[29] utilizationSecMission 14753.349564014
scalar OsgEarthNet.uav[29] utilizationSecMaintenance 4876.2242347948
scalar OsgEarthNet.uav[29] utilizationSecCharge 73520
scalar OsgEarthNet.uav[29] utilizationSecIdle 166050.42520119
scalar OsgEarthNet.uav[29] utilizationEnergyMission 68208.326263428
scalar OsgEarthNet.uav[29] utilizationEnergyMaintenance 23152.86100769
scalar OsgEarthNet.uav[29] utilizationEnergyCharge 91361.161621094
scalar OsgEarthNet.uav[29] utilizationEnergyOverdrawMission 0
scalar OsgEarthNet.uav[29] utilizationEnergyOverdrawMaintenance 0
scalar OsgEarthNet.uav[29] utilizationCountMissions 20
scalar OsgEarthNet.uav[29] utilizationCountManeuversMission 225
scalar OsgEarthNet.uav[29] utilizationCountManeuversMaintenance 40
scalar OsgEarthNet.uav[29] utilizationCountChargeState 20
scalar OsgEarthNet.uav[29] utilizationCountOverdrawnAfterMission 0
scalar OsgEarthNet.uav[29] utilizationCountIdleState 21
scalar OsgEarthNet.uav[29] utilizationFail 0
scalar OsgEarthNet.uav[29] simulationTime 259200
scalar OsgEarthNet.uav[30] utilizationSecMission 8139.2687835733
scalar OsgEarthNet.uav[30] utilizationSecMaintenance 2828.6532106723
scalar OsgEarthNet.uav[30] utilizationSecCharge 41460
scalar OsgEarthNet.uav[30] utilizationSecIdle 206772.07700575
scalar OsgEarthNet.uav[30] utilizationEnergyMission 38157.588710785
scalar OsgEarthNet.uav[30] utilizationEnergyMaintenance 13806.18788147
scalar OsgEarthNet.uav[30] utilizationEnergyCharge 52002.397460938
scalar OsgEarthNet.uav[30] utilizationEnergyOverdrawMission 0
scalar OsgEarthNet.uav[30] utilizationEnergyOverdrawMaintenance 0
scalar OsgEarthNet.uav[30] utilizationCountMissions 11
scalar OsgEarthNet.uav[30] utilizationCountManeuversMission 123
scalar OsgEarthNet.uav[30] utilizationCountManeuversMaintenance 22
scalar OsgEarthNet.uav[30] utilizationCountChargeState 11
scalar OsgEarthNet.uav[30] utilizationCountOverdrawnAfterMission 0
scalar OsgEarthNet.uav[30] utilizationCountIdleState 12
scalar OsgEarthNet.uav[30] utilizationFail 0
scalar OsgEarthNet.uav[30] simulationTime 259200
scalar OsgEarthNet.uav[31] utilizationSecMission 10136.522188766
scalar OsgEarthNet.uav[31] utilizationSecMaintenance 4506.5333447234
scalar OsgEarthNet.uav[31] utilizationSecCharge 54330
scalar OsgEarthNet.uav[31] utilizationSecIdle 190226.94346651
scalar OsgEarthNet.uav[31] utilizationEnergyMission 46577.628623962
scalar OsgEarthNet.uav[31] utilizationEnergyMaintenance 21351.614643097
scalar OsgEarthNet.uav[31] utilizationEnergyCharge 67929.238769531
scalar OsgEarthNet.uav[31] utilizationEnergyOverdrawMission 0
scalar OsgEarthNet.uav[31] utilizationEnergyOverdrawMaintenance 0
scalar OsgEarthNet.uav[31] utilizationCountMissions 15
scalar OsgEarthNet.uav[31] utilizationCountManeuversMission 173
scalar OsgEarthNet.uav[31] utilizationCountManeuversMaintenance 30
scalar OsgEarthNet.uav[31] utilizationCountChargeState 15
scalar OsgEarthNet.uav[31] utilizationCountOverdrawnAfterMission 0
scalar OsgEarthNet.uav[31] utilizationCountIdleState 9
scalar OsgEarthNet.uav[31] utilizationFail 0
scalar OsgEarthNet.uav[31] simulationTime 259200
scalar OsgEarthNet.uav[32] utilizationSecMission 46494.131663577
scalar OsgEarthNet.uav[32] utilizationSecMaintenance 13055.262340949
scalar OsgEarthNet.uav[32] utilizationSecCharge 196658.60499547
scalar OsgEarthNet.uav[32] utilizationSecIdle 2992
scalar OsgEarthNet.uav[32] utilizationEnergyMission 213643.34895708
scalar OsgEarthNet.uav[32] utilizationEnergyMaintenance 59199.566490173
scalar OsgEarthNet.uav[32] utilizationEnergyCharge 271484.20141602
scalar OsgEarthNet.uav[32] utilizationEnergyOverdrawMission 0
scalar OsgEarthNet.uav[32] utilizationEnergyOverdrawMaintenance 0
scalar OsgEarthNet.uav[32] utilizationCountMissions 58
scalar OsgEarthNet.uav[32] utilizationCountManeuversMission 789
scalar OsgEarthNet.uav[32] utilizationCountManeuversMaintenance 115
scalar OsgEarthNet.uav[32] utilizationCountChargeState 58
scalar OsgEarthNet.uav[32] utilizationCountOverdrawnAfterMission 0
scalar OsgEarthNet.uav[32] utilizationCountIdleState 10
scalar OsgEarthNet.uav[32] utilizationFail 0
scalar OsgEarthNet.uav[32] simulationTime 259200
scalar OsgEarthNet.uav[33] utilizationSecMission 20637.94543801
scalar OsgEarthNet.uav[33] utilizationSecMaintenance 7200.7627719941
scalar OsgEarthNet.uav[33] utilizationSecCharge 100861.35395131
scalar OsgEarthNet.uav[33] utilizationSecIdle 130499.93683869
scalar OsgEarthNet.uav[33] utilizationEnergyMission 95686.367866516
scalar OsgEarthNet.uav[33] utilizationEnergyMaintenance 34547.377010345
scalar OsgEarthNet.uav[33] utilizationEnergyCharge 126222.94696045
scalar OsgEarthNet.uav[33] utilizationEnergyOverdrawMission 0
scalar OsgEarthNet.uav[33] utilizationEnergyOverdrawMaintenance 0
scalar OsgEarthNet.uav[33] utilizationCountMissions 28
scalar OsgEarthNet.uav[33] utilizationCountManeuversMission 315
scalar OsgEarthNet.uav[33] utilizationCountManeuversMaintenance 56
scalar OsgEarthNet.uav[33] utilizationCountChargeState 28
scalar OsgEarthNet.uav[33] utilizationCountOverdrawnAfterMission 0
scalar OsgEarthNet.uav[33] utilizationCountIdleState 28
scalar OsgEarthNet.uav[33] utilizationFail 0
scalar OsgEarthNet.uav[33] simulationTime 259200
scalar OsgEarthNet.uav[34] utilizationSecMission 3814.5031255676
scalar OsgEarthNet.uav[34] utilizationSecMaintenance 2194.1473206596
scalar OsgEarthNet.uav[34] utilizationSecCharge 22830
scalar OsgEarthNet.uav[34] utilizationSecIdle 230361.34855377
scalar OsgEarthNet.uav[34] utilizationEnergyMission 18188.407600403
scalar OsgEarthNet.uav[34] utilizationEnergyMaintenance 10583.677009583
scalar OsgEarthNet.uav[34] utilizationEnergyCharge 28772.075683594
scalar OsgEarthNet.uav[34] utilizationEnergyOverdrawMission 0
scalar OsgEarthNet.uav[34] utilizationEnergyOverdrawMaintenance 0
scalar OsgEarthNet.uav[34] utilizationCountMissions 6
scalar OsgEarthNet.uav[34] utilizationCountManeuversMission 61
scalar OsgEarthNet.uav[34] utilizationCountManeuversMaintenance 12
scalar OsgEarthNet.uav[34] utilizationCountChargeState 6
scalar OsgEarthNet.uav[34] utilizationCountOverdrawnAfterMission 0
scalar OsgEarthNet.uav[34] utilizationCountIdleState 7
scalar OsgEarthNet.uav[34] utilizationFail 0
scalar OsgEarthNet.uav[34] simulationTime 259200
scalar OsgEarthNet.uav[35] utilizationSecMission 26882.691558499
scalar OsgEarthNet.uav[35] utilizationSecMaintenance 8383.4632717315
scalar OsgEarthNet.uav[35] utilizationSecCharge 124682.39121105
scalar OsgEarthNet.uav[35] utilizationSecIdle 99251.452958717
scalar OsgEarthNet.uav[35] utilizationEnergyMission 124410.41733551
scalar OsgEarthNet.uav[35] utilizationEnergyMaintenance 38670.888793945
scalar OsgEarthNet.uav[35] utilizationEnergyCharge 158670.09231567
scalar OsgEarthNet.uav[35] utilizationEnergyOverdrawMission 0
scalar OsgEarthNet.uav[35] utilizationEnergyOverdrawMaintenance 0
scalar OsgEarthNet.uav[35] utilizationCountMissions 35
scalar OsgEarthNet.uav[35] utilizationCountManeuversMission 442
scalar OsgEarthNet.uav[35] utilizationCountManeuversMaintenance 70
scalar OsgEarthNet.uav[35] utilizationCountChargeState 35
scalar OsgEarthNet.uav[35] utilizationCountOverdrawnAfterMission 0
scalar OsgEarthNet.uav[35] utilizationCountIdleState 25
scalar OsgEarthNet.uav[35] utilizationFail 0
scalar OsgEarthNet.uav[35] simulationTime 259200
scalar OsgEarthNet.uav[36] utilizationSecMission 15712.083445259
scalar OsgEarthNet.uav[36] utilizationSecMaintenance 4684.2218093332
scalar OsgEarthNet.uav[36] utilizationSecCharge 74010
scalar OsgEarthNet.uav[36] utilizationSecIdle 164793.69374541
scalar OsgEarthNet.uav[36] utilizationEnergyMission 72416.113066094
scalar OsgEarthNet.uav[36] utilizationEnergyMaintenance 22593.4441185
scalar OsgEarthNet.uav[36] utilizationEnergyCharge 92050.686523438
scalar OsgEarthNet.uav[36] utilizationEnergyOverdrawMission 0
scalar OsgEarthNet.uav[36] utilizationEnergyOverdrawMaintenance 0
scalar OsgEarthNet.uav[36] utilizationCountMissions 20
scalar OsgEarthNet.uav[36] utilizationCountManeuversMission 240
scalar OsgEarthNet.uav[36] utilizationCountManeuversMaintenance 41
scalar OsgEarthNet.uav[36] utilizationCountChargeState 20
scalar OsgEarthNet.uav[36] utilizationCountOverdrawnAfterMission 0
scalar OsgEarthNet.uav[36] utilizationCountIdleState 21
scalar OsgEarthNet.uav[36] utilizationFail 0
scalar OsgEarthNet.uav[36] simulationTime 259200
scalar OsgEarthNet.uav[37] utilizationSecMission 1396.9011750739
scalar OsgEarthNet.uav[37] utilizationSecMaintenance 633.11559198989
scalar OsgEarthNet.uav[37] utilizationSecCharge 7400
scalar OsgEarthNet.uav[37] utilizationSecIdle 249769.98223294
scalar OsgEarthNet.uav[37] utilizationEnergyMission 6279.8670806885
scalar OsgEarthNet.uav[37] utilizationEnergyMaintenance 3064.4029273987
scalar OsgEarthNet.uav[37] utilizationEnergyCharge 9344.2705078125
scalar OsgEarthNet.uav[37] utilizationEnergyOverdrawMission 0
scalar OsgEarthNet.uav[37] utilizationEnergyOverdrawMaintenance 0
scalar OsgEarthNet.uav[37] utilizationCountMissions 2
scalar OsgEarthNet.uav[37] utilizationCountManeuversMission 22
scalar OsgEarthNet.uav[37] utilizationCountManeuversMaintenance 4
scalar OsgEarthNet.uav[37] utilizationCountChargeState 2
scalar OsgEarthNet.uav[37] utilizationCountOverdrawnAfterMission 0
scalar OsgEarthNet.uav[37] utilizationCountIdleState 3
scalar OsgEarthNet.uav[37] utilizationFail 0
scalar OsgEarthNet.uav[37] simulationTime 259200
scalar OsgEarthNet.uav[38] utilizationSecMission 44305.558752181
scalar OsgEarthNet.uav[38] utilizationSecMaintenance 13499.966778332
scalar OsgEarthNet.uav[38] utilizationSecCharge 194389.01781608
scalar OsgEarthNet.uav[38] utilizationSecIdle 7005.4556534032
scalar OsgEarthNet.uav[38] utilizationEnergyMission 204757.13375092
scalar OsgEarthNet.uav[38] utilizationEnergyMaintenance 62440.091423035
scalar OsgEarthNet.uav[38] utilizationEnergyCharge 267380.70068359
scalar OsgEarthNet.uav[38] utilizationEnergyOverdrawMission 0
scalar OsgEarthNet.uav[38] utilizationEnergyOverdrawMaintenance 0
scalar OsgEarthNet.uav[38] utilizationCountMissions 57
scalar OsgEarthNet.uav[38] utilizationCountManeuversMission 764
scalar OsgEarthNet.uav[38] utilizationCountManeuversMaintenance 114
scalar OsgEarthNet.uav[38] utilizationCountChargeState 57
scalar OsgEarthNet.uav[38] utilizationCountOverdrawnAfterMission 0
scalar OsgEarthNet.uav[38] utilizationCountIdleState 13
scalar OsgEarthNet.uav[38] utilizationFail 0
scalar OsgEarthNet.uav[38] simulationTime 259200
scalar OsgEarthNet.uav[39] utilizationSecMission 11977.35232041
scalar OsgEarthNet.uav[39] utilizationSecMaintenance 4236.4620029467
scalar OsgEarthNet.uav[39] utilizationSecCharge 60270
scalar OsgEarthNet.uav[39] utilizationSecIdle 182716.18467664
scalar OsgEarthNet.uav[39] utilizationEnergyMission 55256.333366394
scalar OsgEarthNet.uav[39] utilizationEnergyMaintenance 20509.067893982
scalar OsgEarthNet.uav[39] utilizationEnergyCharge 75720.900390625
scalar OsgEarthNet.uav[39] utilizationEnergyOverdrawMission 0
scalar OsgEarthNet.uav[39] utilizationEnergyOverdrawMaintenance 0
scalar OsgEarthNet.uav[39] utilizationCountMissions 16
scalar OsgEarthNet.uav[39] utilizationCountManeuversMission 186
scalar OsgEarthNet.uav[39] utilizationCountManeuversMaintenance 32
scalar OsgEarthNet.uav[39] utilizationCountChargeState 16
scalar OsgEarthNet.uav[39] utilizationCountOverdrawnAfterMission 0
scalar OsgEarthNet.uav[39] utilizationCountIdleState 17
scalar OsgEarthNet.uav[39] utilizationFail 0
scalar OsgEarthNet.uav[39] simulationTime 259200
scalar OsgEarthNet.uav[40] utilizationSecMission 11790.454807316
scalar OsgEarthNet.uav[40] utilizationSecMaintenance 4244.0841797188
scalar OsgEarthNet.uav[40] utilizationSecCharge 59360
scalar OsgEarthNet.uav[40] utilizationSecIdle 183805.46001297
scalar OsgEarthNet.uav[40] utilizationEnergyMission 53906.337581635
scalar OsgEarthNet.uav[40] utilizationEnergyMaintenance 20331.539905548
scalar OsgEarthNet.uav[40] utilizationEnergyCharge 73880.663574219
scalar OsgEarthNet.uav[40] utilizationEnergyOverdrawMission 0
scalar OsgEarthNet.uav[40] utilizationEnergyOverdrawMaintenance 0
scalar OsgEarthNet.uav[40] utilizationCountMissions 16
scalar OsgEarthNet.uav[40] utilizationCountManeuversMission 178
scalar OsgEarthNet.uav[40] utilizationCountManeuversMaintenance 32
scalar OsgEarthNet.uav[40] utilizationCountChargeState 16
scalar OsgEarthNet.uav[40] utilizationCountOverdrawnAfterMission 0
scalar OsgEarthNet.uav[40] utilizationCountIdleState 17
scalar OsgEarthNet.uav[40] utilizationFail 0
scalar OsgEarthNet.uav[40] simulationTime 259200
scalar OsgEarthNet.uav[41] utilizationSecMission 12915.187729097
scalar OsgEarthNet.uav[41] utilizationSecMaintenance 6347.4099935369
scalar OsgEarthNet.uav[41] utilizationSecCharge 70548.96089343
scalar OsgEarthNet.uav[41] utilizationSecIdle 169388.44038394
scalar OsgEarthNet.uav[41] utilizationEnergyMission 59364.616027832
scalar OsgEarthNet.uav[41] utilizationEnergyMaintenance 29780.400772095
scalar OsgEarthNet.uav[41] utilizationEnergyCharge 89138.214355469
scalar OsgEarthNet.uav[41] utilizationEnergyOverdrawMission 0
scalar OsgEarthNet.uav[41] utilizationEnergyOverdrawMaintenance 0
scalar OsgEarthNet.uav[41] utilizationCountMissions 19
scalar OsgEarthNet.uav[41] utilizationCountManeuversMission 222
scalar OsgEarthNet.uav[41] utilizationCountManeuversMaintenance 38
scalar OsgEarthNet.uav[41] utilizationCountChargeState 19
scalar OsgEarthNet.uav[41] utilizationCountOverdrawnAfterMission 0
scalar OsgEarthNet.uav[41] utilizationCountIdleState 15
scalar OsgEarthNet.uav[41] utilizationFail 0
scalar OsgEarthNet.uav[41] simulationTime 259200
scalar OsgEarthNet.uav[42] utilizationSecMission 18828.396232042
scalar OsgEarthNet.uav[42] utilizationSecMaintenance 5647.347956839
scalar OsgEarthNet.uav[42] utilizationSecCharge 92088.21871235
scalar OsgEarthNet.uav[42] utilizationSecIdle 142636.03609877
scalar OsgEarthNet.uav[42] utilizationEnergyMission 87446.667469025
scalar OsgEarthNet.uav[42] utilizationEnergyMaintenance 27279.670574188
scalar OsgEarthNet.uav[42] utilizationEnergyCharge 114602.91748047
scalar OsgEarthNet.uav[42] utilizationEnergyOverdrawMission 0
scalar OsgEarthNet.uav[42] utilizationEnergyOverdrawMaintenance 0
scalar OsgEarthNet.uav[42] utilizationCountMissions 25
scalar OsgEarthNet.uav[42] utilizationCountManeuversMission 287
scalar OsgEarthNet.uav[42] utilizationCountManeuversMaintenance 50
scalar OsgEarthNet.uav[42] utilizationCountChargeState 25
scalar OsgEarthNet.uav[42] utilizationCountOverdrawnAfterMission 0
scalar OsgEarthNet.uav[42] utilizationCountIdleState 25
scalar OsgEarthNet.uav[42] utilizationFail 0
scalar OsgEarthNet.uav[42] simulationTime 259200
scalar OsgEarthNet.uav[43] utilizationSecMission 10759.586238817
scalar OsgEarthNet.uav[43] utilizationSecMaintenance 4555.8113072088
scalar OsgEarthNet.uav[43] utilizationSecCharge 56450
scalar OsgEarthNet.uav[43] utilizationSecIdle 187434.60145397
scalar OsgEarthNet.uav[43] utilizationEnergyMission 49463.548683167
scalar OsgEarthNet.uav[43] utilizationEnergyMaintenance 21425.14755249
scalar OsgEarthNet.uav[43] utilizationEnergyCharge 70876.701660156
scalar OsgEarthNet.uav[43] utilizationEnergyOverdrawMission 0
scalar OsgEarthNet.uav[43] utilizationEnergyOverdrawMaintenance 0
scalar OsgEarthNet.uav[43] utilizationCountMissions 15
scalar OsgEarthNet.uav[43] utilizationCountManeuversMission 169
scalar OsgEarthNet.uav[43] utilizationCountManeuversMaintenance 30
scalar OsgEarthNet.uav[43] utilizationCountChargeState 15
scalar OsgEarthNet.uav[43] utilizationCountOverdrawnAfterMission 0
scalar OsgEarthNet.uav[43] utilizationCountIdleState 16
scalar OsgEarthNet.uav[43] utilizationFail 0
scalar OsgEarthNet.uav[43] simulationTime 259200
scalar OsgEarthNet.uav[44] utilizationSecMission 5609.3099378611
scalar OsgEarthNet.uav[44] utilizationSecMaintenance 3287.8212539203
scalar OsgEarthNet.uav[44] utilizationSecCharge 33800
scalar OsgEarthNet.uav[44] utilizationSecIdle 216502.86780822
scalar OsgEarthNet.uav[44] utilizationEnergyMission 26116.749900818
scalar OsgEarthNet.uav[44] utilizationEnergyMaintenance 16269.007713318
scalar OsgEarthNet.uav[44] utilizationEnergyCharge 42385.753417969
scalar OsgEarthNet.uav[44] utilizationEnergyOverdrawMission 0
scalar OsgEarthNet.uav[44] utilizationEnergyOverdrawMaintenance 0
scalar OsgEarthNet.uav[44] utilizationCountMissions 9
scalar OsgEarthNet.uav[44] utilizationCountManeuversMission 91
scalar OsgEarthNet.uav[44] utilizationCountManeuversMaintenance 18
scalar OsgEarthNet.uav[44] utilizationCountChargeState 9
scalar OsgEarthNet.uav[44] utilizationCountOverdrawnAfterMission 0
scalar OsgEarthNet.uav[44] utilizationCountIdleState 10
scalar OsgEarthNet.uav[44] utilizationFail 0
scalar OsgEarthNet.uav[44] simulationTime 259200
scalar OsgEarthNet.uav[45] utilizationSecMission 43871.713762551
scalar OsgEarthNet.uav[45] utilizationSecMaintenance 13839.826270979
scalar OsgEarthNet.uav[45] utilizationSecCharge 194886.99253432
scalar OsgEarthNet.uav[45] utilizationSecIdle 6601.4664321479
scalar OsgEarthNet.uav[45] utilizationEnergyMission 203341.6459465
scalar OsgEarthNet.uav[45] utilizationEnergyMaintenance 64867.495109558
scalar OsgEarthNet.uav[45] utilizationEnergyCharge 269136.66308594
scalar OsgEarthNet.uav[45] utilizationEnergyOverdrawMission 0
scalar OsgEarthNet.uav[45] utilizationEnergyOverdrawMaintenance 0
scalar OsgEarthNet.uav[45] utilizationCountMissions 57
scalar OsgEarthNet.uav[45] utilizationCountManeuversMission 761
scalar OsgEarthNet.uav[45] utilizationCountManeuversMaintenance 114
scalar OsgEarthNet.uav[45] utilizationCountChargeState 57
scalar OsgEarthNet.uav[45] utilizationCountOverdrawnAfterMission 0
scalar OsgEarthNet.uav[45] utilizationCountIdleState 9
scalar OsgEarthNet.uav[45] utilizationFail 0
scalar OsgEarthNet.uav[45] simulationTime 259200
scalar OsgEarthNet.uav[46] utilizationSecMission 2672.6080058893
scalar OsgEarthNet.uav[46] utilizationSecMaintenance 1456.6098419303
scalar OsgEarthNet.uav[46] utilizationSecCharge 15070
scalar OsgEarthNet.uav[46] utilizationSecIdle 240000.78115218
scalar OsgEarthNet.uav[46] utilizationEnergyMission 12242.195716858
scalar OsgEarthNet.uav[46] utilizationEnergyMaintenance 6582.2590789795
scalar OsgEarthNet.uav[46] utilizationEnergyCharge 18824.458984375
scalar OsgEarthNet.uav[46] utilizationEnergyOverdrawMission 0
scalar OsgEarthNet.uav[46] utilizationEnergyOverdrawMaintenance 0
scalar OsgEarthNet.uav[46] utilizationCountMissions 4
scalar OsgEarthNet.uav[46] utilizationCountManeuversMission 44
scalar OsgEarthNet.uav[46] utilizationCountManeuversMaintenance 8
scalar OsgEarthNet.uav[46] utilizationCountChargeState 4
scalar OsgEarthNet.uav[46] utilizationCountOverdrawnAfterMission 0
scalar OsgEarthNet.uav[46] utilizationCountIdleState 5
scalar OsgEarthNet.uav[46] utilizationFail 0
scalar OsgEarthNet.uav[46] simulationTime 259200
scalar OsgEarthNet.uav[47] utilizationSecMission 5590.9735901816
scalar OsgEarthNet.uav[47] utilizationSecMaintenance 3423.4754147966
scalar OsgEarthNet.uav[47] utilizationSecCharge 33530
scalar OsgEarthNet.uav[47] utilizationSecIdle 216655.54999502
scalar OsgEarthNet.uav[47] utilizationEnergyMission 25916.751029968
scalar OsgEarthNet.uav[47] utilizationEnergyMaintenance 16513.745616913
scalar OsgEarthNet.uav[47] utilizationEnergyCharge 42430.499511719
scalar OsgEarthNet.uav[47] utilizationEnergyOverdrawMission 0
scalar OsgEarthNet.uav[47] utilizationEnergyOverdrawMaintenance 0
scalar OsgEarthNet.uav[47] utilizationCountMissions 9
scalar OsgEarthNet.uav[47] utilizationCountManeuversMission 91
scalar OsgEarthNet.uav[47] utilizationCountManeuversMaintenance 18
scalar OsgEarthNet.uav[47] utilizationCountChargeState 9
scalar OsgEarthNet.uav[47] utilizationCountOverdrawnAfterMission 0
scalar OsgEarthNet.uav[47] utilizationCountIdleState 9
scalar OsgEarthNet.uav[47] utilizationFail 0
scalar OsgEarthNet.uav[47] simulationTime 259200
scalar OsgEarthNet.uav[48] utilizationSecMission 942.21988310691
scalar OsgEarthNet.uav[48] utilizationSecMaintenance 1068.5619809754
scalar OsgEarthNet.uav[48] utilizationSecCharge 7580
scalar OsgEarthNet.uav[48] utilizationSecIdle 249609.21713592
scalar OsgEarthNet.uav[48] utilizationEnergyMission 4489.3326644897
scalar OsgEarthNet.uav[48] utilizationEnergyMaintenance 4983.905418396
scalar OsgEarthNet.uav[48] utilizationEnergyCharge 9473.2470703125
scalar OsgEarthNet.uav[48] utilizationEnergyOverdrawMission 0
scalar OsgEarthNet.uav[48] utilizationEnergyOverdrawMaintenance 0
scalar OsgEarthNet.uav[48] utilizationCountMissions 2
scalar OsgEarthNet.uav[48] utilizationCountManeuversMission 16
scalar OsgEarthNet.uav[48] utilizationCountManeuversMaintenance 4
scalar OsgEarthNet.uav[48] utilizationCountChargeState 2
scalar OsgEarthNet.uav[48] utilizationCountOverdrawnAfterMission 0
scalar OsgEarthNet.uav[48] utilizationCountIdleState 3
scalar OsgEarthNet.uav[48] utilizationFail 0
scalar OsgEarthNet.uav[48] simulationTime 259200
scalar OsgEarthNet.uav[49] utilizationSecMission 2746.3163771689
scalar OsgEarthNet.uav[49] utilizationSecMaintenance 1279.5204285401
scalar OsgEarthNet.uav[49] utilizationSecCharge 14740
scalar OsgEarthNet.uav[49] utilizationSecIdle 240434.16219429
scalar OsgEarthNet.uav[49] utilizationEnergyMission 12685.662704468
scalar OsgEarthNet.uav[49] utilizationEnergyMaintenance 5541.4699363708
scalar OsgEarthNet.uav[49] utilizationEnergyCharge 18227.12890625
scalar OsgEarthNet.uav[49] utilizationEnergyOverdrawMission 0
scalar OsgEarthNet.uav[49] utilizationEnergyOverdrawMaintenance 0
scalar OsgEarthNet.uav[49] utilizationCountMissions 4
scalar OsgEarthNet.uav[49] utilizationCountManeuversMission 42
scalar OsgEarthNet.uav[49] utilizationCountManeuversMaintenance 8
scalar OsgEarthNet.uav[49] utilizationCountChargeState 4
scalar OsgEarthNet.uav[49] utilizationCountOverdrawnAfterMission 0
scalar OsgEarthNet.uav[49] utilizationCountIdleState 5
scalar OsgEarthNet.uav[49] utilizationFail 0
scalar OsgEarthNet.uav[49] simulationTime 259200
scalar OsgEarthNet.uav[50] utilizationSecMission 10327.48783338
scalar OsgEarthNet.uav[50] utilizationSecMaintenance 3796.3128126426
scalar OsgEarthNet.uav[50] utilizationSecCharge 48920
scalar OsgEarthNet.uav[50] utilizationSecIdle 196156.19835398
scalar OsgEarthNet.uav[50] utilizationEnergyMission 47083.438144269
scalar OsgEarthNet.uav[50] utilizationEnergyMaintenance 18158.845161438
scalar OsgEarthNet.uav[50] utilizationEnergyCharge 61448.869628906
scalar OsgEarthNet.uav[50] utilizationEnergyOverdrawMission 0
scalar OsgEarthNet.uav[50] utilizationEnergyOverdrawMaintenance 0
scalar OsgEarthNet.uav[50] utilizationCountMissions 13
scalar OsgEarthNet.uav[50] utilizationCountManeuversMission 164
scalar OsgEarthNet.uav[50] utilizationCountManeuversMaintenance 27
scalar OsgEarthNet.uav[50] utilizationCountChargeState 13
scalar OsgEarthNet.uav[50] utilizationCountOverdrawnAfterMission 0
scalar OsgEarthNet.uav[50] utilizationCountIdleState 14
scalar OsgEarthNet.uav[50] utilizationFail 0
scalar OsgEarthNet.uav[50] simulationTime 259200
scalar OsgEarthNet.uav[51] utilizationSecMission 10098.062008883
scalar OsgEarthNet.uav[51] utilizationSecMaintenance 4812.7837116682
scalar OsgEarthNet.uav[51] utilizationSecCharge 56340
scalar OsgEarthNet.uav[51] utilizationSecIdle 187949.15327945
scalar OsgEarthNet.uav[51] utilizationEnergyMission 47621.393539429
scalar OsgEarthNet.uav[51] utilizationEnergyMaintenance 23544.32434082
scalar OsgEarthNet.uav[51] utilizationEnergyCharge 71165.717285156
scalar OsgEarthNet.uav[51] utilizationEnergyOverdrawMission 0
scalar OsgEarthNet.uav[51] utilizationEnergyOverdrawMaintenance 0
scalar OsgEarthNet.uav[51] utilizationCountMissions 15
scalar OsgEarthNet.uav[51] utilizationCountManeuversMission 171
scalar OsgEarthNet.uav[51] utilizationCountManeuversMaintenance 30
scalar OsgEarthNet.uav[51] utilizationCountChargeState 15
scalar OsgEarthNet.uav[51] utilizationCountOverdrawnAfterMission 0
scalar OsgEarthNet.uav[51] utilizationCountIdleState 13
scalar OsgEarthNet.uav[51] utilizationFail 0
scalar OsgEarthNet.uav[51] simulationTime 259200
scalar OsgEarthNet.uav[52] utilizationSecMission 45412.135719727
scalar OsgEarthNet.uav[52] utilizationSecMaintenance 12835.148975787
scalar OsgEarthNet.uav[52] utilizationSecCharge 194279.25326171
scalar OsgEarthNet.uav[52] utilizationSecIdle 6673.4610427756
scalar OsgEarthNet.uav[52] utilizationEnergyMission 208829.81394196
scalar OsgEarthNet.uav[52] utilizationEnergyMaintenance 58894.201725006
scalar OsgEarthNet.uav[52] utilizationEnergyCharge 264834.40100098
scalar OsgEarthNet.uav[52] utilizationEnergyOverdrawMission 0
scalar OsgEarthNet.uav[52] utilizationEnergyOverdrawMaintenance 0
scalar OsgEarthNet.uav[52] utilizationCountMissions 57
scalar OsgEarthNet.uav[52] utilizationCountManeuversMission 770
scalar OsgEarthNet.uav[52] utilizationCountManeuversMaintenance 114
scalar OsgEarthNet.uav[52] utilizationCountChargeState 57
scalar OsgEarthNet.uav[52] utilizationCountOverdrawnAfterMission 0
scalar OsgEarthNet.uav[52] utilizationCountIdleState 14
scalar OsgEarthNet.uav[52] utilizationFail 0
scalar OsgEarthNet.uav[52] simulationTime 259200
scalar OsgEarthNet.uav[53] utilizationSecMission 8608.4121240158
scalar OsgEarthNet.uav[53] utilizationSecMaintenance 3261.5009143946
scalar OsgEarthNet.uav[53] utilizationSecCharge 44880
scalar OsgEarthNet.uav[53] utilizationSecIdle 202450.08596159
scalar OsgEarthNet.uav[53] utilizationEnergyMission 40378.572044373
scalar OsgEarthNet.uav[53] utilizationEnergyMaintenance 15774.278499603
scalar OsgEarthNet.uav[53] utilizationEnergyCharge 56152.862304688
scalar OsgEarthNet.uav[53] utilizationEnergyOverdrawMission 0
scalar OsgEarthNet.uav[53] utilizationEnergyOverdrawMaintenance 0
scalar OsgEarthNet.uav[53] utilizationCountMissions 12
scalar OsgEarthNet.uav[53] utilizationCountManeuversMission 131
scalar OsgEarthNet.uav[53] utilizationCountManeuversMaintenance 24
scalar OsgEarthNet.uav[53] utilizationCountChargeState 12
scalar OsgEarthNet.uav[53] utilizationCountOverdrawnAfterMission 0
scalar OsgEarthNet.uav[53] utilizationCountIdleState 13
scalar OsgEarthNet.uav[53] utilizationFail 0
scalar OsgEarthNet.uav[53] simulationTime 259200
scalar OsgEarthNet.uav[54] utilizationSecMission 2141.9668622314
scalar OsgEarthNet.uav[54] utilizationSecMaintenance 916.96651144049
scalar OsgEarthNet.uav[54] utilizationSecCharge 11230
scalar OsgEarthNet.uav[54] utilizationSecIdle 244911.06562633
scalar OsgEarthNet.uav[54] utilizationEnergyMission 9759.8434448242
scalar OsgEarthNet.uav[54] utilizationEnergyMaintenance 4287.1448516846
scalar OsgEarthNet.uav[54] utilizationEnergyCharge 14046.989257812
scalar OsgEarthNet.uav[54] utilizationEnergyOverdrawMission 0
scalar OsgEarthNet.uav[54] utilizationEnergyOverdrawMaintenance 0
scalar OsgEarthNet.uav[54] utilizationCountMissions 3
scalar OsgEarthNet.uav[54] utilizationCountManeuversMission 34
scalar OsgEarthNet.uav[54] utilizationCountManeuversMaintenance 6
scalar OsgEarthNet.uav[54] utilizationCountChargeState 3
scalar OsgEarthNet.uav[54] utilizationCountOverdrawnAfterMission 0
scalar OsgEarthNet.uav[54] utilizationCountIdleState 4
scalar OsgEarthNet.uav[54] utilizationFail 0
scalar OsgEarthNet.uav[54] simulationTime 259200
scalar OsgEarthNet.uav[55] utilizationSecMission 11712.943655324
scalar OsgEarthNet.uav[55] utilizationSecMaintenance 5587.6985515688
scalar OsgEarthNet.uav[55] utilizationSecCharge 61617.356793107
scalar OsgEarthNet.uav[55] utilizationSecIdle 180282
scalar OsgEarthNet.uav[55] utilizationEnergyMission 54896.007077374
scalar OsgEarthNet.uav[55] utilizationEnergyMaintenance 26266.547832489
scalar OsgEarthNet.uav[55] utilizationEnergyCharge 78020.587524414
scalar OsgEarthNet.uav[55] utilizationEnergyOverdrawMission 0
scalar OsgEarthNet.uav[55] utilizationEnergyOverdrawMaintenance 0
scalar OsgEarthNet.uav[55] utilizationCountMissions 17
scalar OsgEarthNet.uav[55] utilizationCountManeuversMission 191
scalar OsgEarthNet.uav[55] utilizationCountManeuversMaintenance 33
scalar OsgEarthNet.uav[55] utilizationCountChargeState 17
scalar OsgEarthNet.uav[55] utilizationCountOverdrawnAfterMission 0
scalar OsgEarthNet.uav[55] utilizationCountIdleState 17
scalar OsgEarthNet.uav[55] utilizationFail 0
scalar OsgEarthNet.uav[55] simulationTime 259200
scalar OsgEarthNet.uav[56] utilizationSecMission 7260.3065143433
scalar OsgEarthNet.uav[56] utilizationSecMaintenance 2711.1851007336
scalar OsgEarthNet.uav[56] utilizationSecCharge 37150
scalar OsgEarthNet.uav[56] utilizationSecIdle 212078.50738492
scalar OsgEarthNet.uav[56] utilizationEnergyMission 33544.51612854
scalar OsgEarthNet.uav[56] utilizationEnergyMaintenance 13030.19103241
scalar OsgEarthNet.uav[56] utilizationEnergyCharge 46488.393066406
scalar OsgEarthNet.uav[56] utilizationEnergyOverdrawMission 0
scalar OsgEarthNet.uav[56] utilizationEnergyOverdrawMaintenance 0
scalar OsgEarthNet.uav[56] utilizationCountMissions 10
scalar OsgEarthNet.uav[56] utilizationCountManeuversMission 111
scalar OsgEarthNet.uav[56] utilizationCountManeuversMaintenance 20
scalar OsgEarthNet.uav[56] utilizationCountChargeState 10
scalar OsgEarthNet.uav[56] utilizationCountOverdrawnAfterMission 0
scalar OsgEarthNet.uav[56] utilizationCountIdleState 11
scalar OsgEarthNet.uav[56] utilizationFail 0
scalar OsgEarthNet.uav[56] simulationTime 259200
scalar OsgEarthNet.uav[57] utilizationSecMission 2009.557191207
scalar OsgEarthNet.uav[57] utilizationSecMaintenance 981.10310736905
scalar OsgEarthNet.uav[57] utilizationSecCharge 11230
scalar OsgEarthNet.uav[57] utilizationSecIdle 244979.33870142
scalar OsgEarthNet.uav[57] utilizationEnergyMission 9169.5953979492
scalar OsgEarthNet.uav[57] utilizationEnergyMaintenance 4826.9175453186
scalar OsgEarthNet.uav[57] utilizationEnergyCharge 13996.521484375
scalar OsgEarthNet.uav[57] utilizationEnergyOverdrawMission 0
scalar OsgEarthNet.uav[57] utilizationEnergyOverdrawMaintenance 0
scalar OsgEarthNet.uav[57] utilizationCountMissions 3
scalar OsgEarthNet.uav[57] utilizationCountManeuversMission 31
scalar OsgEarthNet.uav[57] utilizationCountManeuversMaintenance 6
scalar OsgEarthNet.uav[57] utilizationCountChargeState 3
scalar OsgEarthNet.uav[57] utilizationCountOverdrawnAfterMission 0
scalar OsgEarthNet.uav[57] utilizationCountIdleState 4
scalar OsgEarthNet.uav[57] utilizationFail 0
scalar OsgEarthNet.uav[57] simulationTime 259200
scalar OsgEarthNet.uav[58] utilizationSecMission 44842.11406274
scalar OsgEarthNet.uav[58] utilizationSecMaintenance 13733.488627188
scalar OsgEarthNet.uav[58] utilizationSecCharge 194644.93796198
scalar OsgEarthNet.uav[58] utilizationSecIdle 5979.4583480894
scalar OsgEarthNet.uav[58] utilizationEnergyMission 207617.03035736
scalar OsgEarthNet.uav[58] utilizationEnergyMaintenance 62311.372608185
scalar OsgEarthNet.uav[58] utilizationEnergyCharge 266625.80395508
scalar OsgEarthNet.uav[58] utilizationEnergyOverdrawMission 0
scalar OsgEarthNet.uav[58] utilizationEnergyOverdrawMaintenance 0
scalar OsgEarthNet.uav[58] utilizationCountMissions 58
scalar OsgEarthNet.uav[58] utilizationCountManeuversMission 777
scalar OsgEarthNet.uav[58] utilizationCountManeuversMaintenance 116
scalar OsgEarthNet.uav[58] utilizationCountChargeState 58
scalar OsgEarthNet.uav[58] utilizationCountOverdrawnAfterMission 0
scalar OsgEarthNet.uav[58] utilizationCountIdleState 11
scalar OsgEarthNet.uav[58] utilizationFail 0
scalar OsgEarthNet.uav[58] simulationTime 259200
scalar OsgEarthNet.uav[59] utilizationSecMission 7220.0653650473
scalar OsgEarthNet.uav[59] utilizationSecMaintenance 3646.3463065071
scalar OsgEarthNet.uav[59] utilizationSecCharge 40850
scalar OsgEarthNet.uav[59] utilizationSecIdle 207483.58732845
scalar OsgEarthNet.uav[59] utilizationEnergyMission 33702.22731781
scalar OsgEarthNet.uav[59] utilizationEnergyMaintenance 17320.004428864
scalar OsgEarthNet.uav[59] utilizationEnergyCharge 51022.234863281
scalar OsgEarthNet.uav[59] utilizationEnergyOverdrawMission 0
scalar OsgEarthNet.uav[59] utilizationEnergyOverdrawMaintenance 0
scalar OsgEarthNet.uav[59] utilizationCountMissions 11
scalar OsgEarthNet.uav[59] utilizationCountManeuversMission 117
scalar OsgEarthNet.uav[59] utilizationCountManeuversMaintenance 22
scalar OsgEarthNet.uav[59] utilizationCountChargeState 11
scalar OsgEarthNet.uav[59] utilizationCountOverdrawnAfterMission 0
scalar OsgEarthNet.uav[59] utilizationCountIdleState 12
scalar OsgEarthNet.uav[59] utilizationFail 0
scalar OsgEarthNet.uav[59] simulationTime 259200
scalar OsgEarthNet.uav[60] utilizationSecMission 7235.078594195
scalar OsgEarthNet.uav[60] utilizationSecMaintenance 2801.6177141911
scalar OsgEarthNet.uav[60] utilizationSecCharge 35989.001212999
scalar OsgEarthNet.uav[60] utilizationSecIdle 213174.30147861
scalar OsgEarthNet.uav[60] utilizationEnergyMission 33068.229446411
scalar OsgEarthNet.uav[60] utilizationEnergyMaintenance 13656.448612213
scalar OsgEarthNet.uav[60] utilizationEnergyCharge 46114.331054688
scalar OsgEarthNet.uav[60] utilizationEnergyOverdrawMission 0
scalar OsgEarthNet.uav[60] utilizationEnergyOverdrawMaintenance 0
scalar OsgEarthNet.uav[60] utilizationCountMissions 10
scalar OsgEarthNet.uav[60] utilizationCountManeuversMission 114
scalar OsgEarthNet.uav[60] utilizationCountManeuversMaintenance 20
scalar OsgEarthNet.uav[60] utilizationCountChargeState 10
scalar OsgEarthNet.uav[60] utilizationCountOverdrawnAfterMission 0
scalar OsgEarthNet.uav[60] utilizationCountIdleState 10
scalar OsgEarthNet.uav[60] utilizationFail 0
scalar OsgEarthNet.uav[60] simulationTime 259200
scalar OsgEarthNet.uav[61] utilizationSecMission 8974.2415527203
scalar OsgEarthNet.uav[61] utilizationSecMaintenance 4839.2696489358
scalar OsgEarthNet.uav[61] utilizationSecCharge 51460
scalar OsgEarthNet.uav[61] utilizationSecIdle 193926.48779834
scalar OsgEarthNet.uav[61] utilizationEnergyMission 41760.497489929
scalar OsgEarthNet.uav[61] utilizationEnergyMaintenance 23025.819965363
scalar OsgEarthNet.uav[61] utilizationEnergyCharge 64786.31640625
scalar OsgEarthNet.uav[61] utilizationEnergyOverdrawMission 0
scalar OsgEarthNet.uav[61] utilizationEnergyOverdrawMaintenance 0
scalar OsgEarthNet.uav[61] utilizationCountMissions 14
scalar OsgEarthNet.uav[61] utilizationCountManeuversMission 154
scalar OsgEarthNet.uav[61] utilizationCountManeuversMaintenance 28
scalar OsgEarthNet.uav[61] utilizationCountChargeState 14
scalar OsgEarthNet.uav[61] utilizationCountOverdrawnAfterMission 0
scalar OsgEarthNet.uav[61] utilizationCountIdleState 14
scalar OsgEarthNet.uav[61] utilizationFail 0
scalar OsgEarthNet.uav[61] simulationTime 259200
scalar OsgEarthNet.uav[62] utilizationSecMission 9240.3157127267
scalar OsgEarthNet.uav[62] utilizationSecMaintenance 4742.5885605908
scalar OsgEarthNet.uav[62] utilizationSecCharge 52460
scalar OsgEarthNet.uav[62] utilizationSecIdle 192757.09472668
scalar OsgEarthNet.uav[62] utilizationEnergyMission 43250.079956055
scalar OsgEarthNet.uav[62] utilizationEnergyMaintenance 22713.830024719
scalar OsgEarthNet.uav[62] utilizationEnergyCharge 65963.915039062
scalar OsgEarthNet.uav[62] utilizationEnergyOverdrawMission 0
scalar OsgEarthNet.uav[62] utilizationEnergyOverdrawMaintenance 0
scalar OsgEarthNet.uav[62] utilizationCountMissions 14
scalar OsgEarthNet.uav[62] utilizationCountManeuversMission 156
scalar OsgEarthNet.uav[62] utilizationCountManeuversMaintenance 28
scalar OsgEarthNet.uav[62] utilizationCountChargeState 14
scalar OsgEarthNet.uav[62] utilizationCountOverdrawnAfterMission 0
scalar OsgEarthNet.uav[62] utilizationCountIdleState 14
scalar OsgEarthNet.uav[62] utilizationFail 0
scalar OsgEarthNet.uav[62] simulationTime 259200
scalar OsgEarthNet.uav[63] utilizationSecMission 9598.4840898229
scalar OsgEarthNet.uav[63] utilizationSecMaintenance 3622.3950248267
scalar OsgEarthNet.uav[63] utilizationSecCharge 48380
scalar OsgEarthNet.uav[63] utilizationSecIdle 197599.11988535
scalar OsgEarthNet.uav[63] utilizationEnergyMission 43274.901092529
scalar OsgEarthNet.uav[63] utilizationEnergyMaintenance 17141.04712677
scalar OsgEarthNet.uav[63] utilizationEnergyCharge 60415.942382812
scalar OsgEarthNet.uav[63] utilizationEnergyOverdrawMission 0
scalar OsgEarthNet.uav[63] utilizationEnergyOverdrawMaintenance 0
scalar OsgEarthNet.uav[63] utilizationCountMissions 13
scalar OsgEarthNet.uav[63] utilizationCountManeuversMission 147
scalar OsgEarthNet.uav[63] utilizationCountManeuversMaintenance 26
scalar OsgEarthNet.uav[63] utilizationCountChargeState 13
scalar OsgEarthNet.uav[63] utilizationCountOverdrawnAfterMission 0
scalar OsgEarthNet.uav[63] utilizationCountIdleState 14
scalar OsgEarthNet.uav[63] utilizationFail 0
scalar OsgEarthNet.uav[63] simulationTime 259200
scalar OsgEarthNet.uav[64] utilizationSecMission 4510.9267325956
scalar OsgEarthNet.uav[64] utilizationSecMaintenance 2605.8551331201
scalar OsgEarthNet.uav[64] utilizationSecCharge 26450
scalar OsgEarthNet.uav[64] utilizationSecIdle 225633.21713428
scalar OsgEarthNet.uav[64] utilizationEnergyMission 20895.607406616
scalar OsgEarthNet.uav[64] utilizationEnergyMaintenance 12426.292449951
scalar OsgEarthNet.uav[64] utilizationEnergyCharge 33321.916992188
scalar OsgEarthNet.uav[64] utilizationEnergyOverdrawMission 0
scalar OsgEarthNet.uav[64] utilizationEnergyOverdrawMaintenance 0
scalar OsgEarthNet.uav[64] utilizationCountMissions 7
scalar OsgEarthNet.uav[64] utilizationCountManeuversMission 75
scalar OsgEarthNet.uav[64] utilizationCountManeuversMaintenance 14
scalar OsgEarthNet.uav[64] utilizationCountChargeState 7
scalar OsgEarthNet.uav[64] utilizationCountOverdrawnAfterMission 0
scalar OsgEarthNet.uav[64] utilizationCountIdleState 8
scalar OsgEarthNet.uav[64] utilizationFail 0
scalar OsgEarthNet.uav[64] simulationTime 259200
scalar OsgEarthNet.uav[65] utilizationSecMission 44102.926298388
[...]
scalar OsgEarthNet.uav[82] utilizationSecIdle 197597.80425065
scalar OsgEarthNet.uav[82] utilizationEnergyMission 43552.795532227
scalar OsgEarthNet.uav[82] utilizationEnergyMaintenance 17295.023220062
scalar OsgEarthNet.uav[82] utilizationEnergyCharge 60719.8359375
scalar OsgEarthNet.uav[82] utilizationEnergyOverdrawMission 0
scalar OsgEarthNet.uav[82] utilizationEnergyOverdrawMaintenance 0
scalar OsgEarthNet.uav[82] utilizationCountMissions 13
scalar OsgEarthNet.uav[82] utilizationCountManeuversMission 148
scalar OsgEarthNet.uav[82] utilizationCountManeuversMaintenance 26
scalar OsgEarthNet.uav[82] utilizationCountChargeState 13
scalar OsgEarthNet.uav[82] utilizationCountOverdrawnAfterMission 0
scalar OsgEarthNet.uav[82] utilizationCountIdleState 13
scalar OsgEarthNet.uav[82] utilizationFail 0
scalar OsgEarthNet.uav[82] simulationTime 259200
scalar OsgEarthNet.uav[83] utilizationSecMission 7330.5730734833
scalar OsgEarthNet.uav[83] utilizationSecMaintenance 2684.0885254553
scalar OsgEarthNet.uav[83] utilizationSecCharge 37310
scalar OsgEarthNet.uav[83] utilizationSecIdle 211875.33740106
scalar OsgEarthNet.uav[83] utilizationEnergyMission 34289.234764099
scalar OsgEarthNet.uav[83] utilizationEnergyMaintenance 12578.678928375
scalar OsgEarthNet.uav[83] utilizationEnergyCharge 46878.884277344
scalar OsgEarthNet.uav[83] utilizationEnergyOverdrawMission 0
scalar OsgEarthNet.uav[83] utilizationEnergyOverdrawMaintenance 0
scalar OsgEarthNet.uav[83] utilizationCountMissions 10
scalar OsgEarthNet.uav[83] utilizationCountManeuversMission 111
scalar OsgEarthNet.uav[83] utilizationCountManeuversMaintenance 20
scalar OsgEarthNet.uav[83] utilizationCountChargeState 10
scalar OsgEarthNet.uav[83] utilizationCountOverdrawnAfterMission 0
scalar OsgEarthNet.uav[83] utilizationCountIdleState 11
scalar OsgEarthNet.uav[83] utilizationFail 0
scalar OsgEarthNet.uav[83] simulationTime 259200
scalar OsgEarthNet.uav[84] utilizationSecMission 5337.4755274515
scalar OsgEarthNet.uav[84] utilizationSecMaintenance 2756.6360042266
scalar OsgEarthNet.uav[84] utilizationSecCharge 29700
scalar OsgEarthNet.uav[84] utilizationSecIdle 221405.88746832
scalar OsgEarthNet.uav[84] utilizationEnergyMission 24492.145774841
scalar OsgEarthNet.uav[84] utilizationEnergyMaintenance 13385.937084198
scalar OsgEarthNet.uav[84] utilizationEnergyCharge 37878.075683594
scalar OsgEarthNet.uav[84] utilizationEnergyOverdrawMission 0
scalar OsgEarthNet.uav[84] utilizationEnergyOverdrawMaintenance 0
scalar OsgEarthNet.uav[84] utilizationCountMissions 8
scalar OsgEarthNet.uav[84] utilizationCountManeuversMission 89
scalar OsgEarthNet.uav[84] utilizationCountManeuversMaintenance 16
scalar OsgEarthNet.uav[84] utilizationCountChargeState 8
scalar OsgEarthNet.uav[84] utilizationCountOverdrawnAfterMission 0
scalar OsgEarthNet.uav[84] utilizationCountIdleState 8
scalar OsgEarthNet.uav[84] utilizationFail 0
scalar OsgEarthNet.uav[84] simulationTime 259200
scalar OsgEarthNet.uav[85] utilizationSecMission 46426.495470235
scalar OsgEarthNet.uav[85] utilizationSecMaintenance 12278.298958305
scalar OsgEarthNet.uav[85] utilizationSecCharge 195853.53151987
scalar OsgEarthNet.uav[85] utilizationSecIdle 4641.6730515863
scalar OsgEarthNet.uav[85] utilizationEnergyMission 213943.27982712
scalar OsgEarthNet.uav[85] utilizationEnergyMaintenance 57186.837882996
scalar OsgEarthNet.uav[85] utilizationEnergyCharge 268624.10742188
scalar OsgEarthNet.uav[85] utilizationEnergyOverdrawMission 0
scalar OsgEarthNet.uav[85] utilizationEnergyOverdrawMaintenance 0
scalar OsgEarthNet.uav[85] utilizationCountMissions 57
scalar OsgEarthNet.uav[85] utilizationCountManeuversMission 775
scalar OsgEarthNet.uav[85] utilizationCountManeuversMaintenance 114
scalar OsgEarthNet.uav[85] utilizationCountChargeState 57
scalar OsgEarthNet.uav[85] utilizationCountOverdrawnAfterMission 0
scalar OsgEarthNet.uav[85] utilizationCountIdleState 11
scalar OsgEarthNet.uav[85] utilizationFail 0
scalar OsgEarthNet.uav[85] simulationTime 259200
scalar OsgEarthNet.uav[86] utilizationSecMission 6994.8517404148
scalar OsgEarthNet.uav[86] utilizationSecMaintenance 3125.2357246413
scalar OsgEarthNet.uav[86] utilizationSecCharge 37750
scalar OsgEarthNet.uav[86] utilizationSecIdle 211329.91153494
scalar OsgEarthNet.uav[86] utilizationEnergyMission 32055.106880188
scalar OsgEarthNet.uav[86] utilizationEnergyMaintenance 15229.689823151
scalar OsgEarthNet.uav[86] utilizationEnergyCharge 47284.812011719
scalar OsgEarthNet.uav[86] utilizationEnergyOverdrawMission 0
scalar OsgEarthNet.uav[86] utilizationEnergyOverdrawMaintenance 0
scalar OsgEarthNet.uav[86] utilizationCountMissions 10
scalar OsgEarthNet.uav[86] utilizationCountManeuversMission 108
scalar OsgEarthNet.uav[86] utilizationCountManeuversMaintenance 20
scalar OsgEarthNet.uav[86] utilizationCountChargeState 10
scalar OsgEarthNet.uav[86] utilizationCountOverdrawnAfterMission 0
scalar OsgEarthNet.uav[86] utilizationCountIdleState 11
scalar OsgEarthNet.uav[86] utilizationFail 0
scalar OsgEarthNet.uav[86] simulationTime 259200
scalar OsgEarthNet.uav[87] utilizationSecMission 3401.1743678501
scalar OsgEarthNet.uav[87] utilizationSecMaintenance 1749.0730766743
scalar OsgEarthNet.uav[87] utilizationSecCharge 19150
scalar OsgEarthNet.uav[87] utilizationSecIdle 234899.75155548
scalar OsgEarthNet.uav[87] utilizationEnergyMission 15830.231582642
scalar OsgEarthNet.uav[87] utilizationEnergyMaintenance 8332.8784255981
scalar OsgEarthNet.uav[87] utilizationEnergyCharge 24163.103027344
scalar OsgEarthNet.uav[87] utilizationEnergyOverdrawMission 0
scalar OsgEarthNet.uav[87] utilizationEnergyOverdrawMaintenance 0
scalar OsgEarthNet.uav[87] utilizationCountMissions 5
scalar OsgEarthNet.uav[87] utilizationCountManeuversMission 57
scalar OsgEarthNet.uav[87] utilizationCountManeuversMaintenance 10
scalar OsgEarthNet.uav[87] utilizationCountChargeState 5
scalar OsgEarthNet.uav[87] utilizationCountOverdrawnAfterMission 0
scalar OsgEarthNet.uav[87] utilizationCountIdleState 6
scalar OsgEarthNet.uav[87] utilizationFail 0
scalar OsgEarthNet.uav[87] simulationTime 259200
scalar OsgEarthNet.uav[88] utilizationSecMission 43571.331270567
scalar OsgEarthNet.uav[88] utilizationSecMaintenance 13982.747986068
scalar OsgEarthNet.uav[88] utilizationSecCharge 193358.64572384
scalar OsgEarthNet.uav[88] utilizationSecIdle 8287.2740195281
scalar OsgEarthNet.uav[88] utilizationEnergyMission 201761.13674927
scalar OsgEarthNet.uav[88] utilizationEnergyMaintenance 64081.278694153
scalar OsgEarthNet.uav[88] utilizationEnergyCharge 265842.31005859
scalar OsgEarthNet.uav[88] utilizationEnergyOverdrawMission 0
scalar OsgEarthNet.uav[88] utilizationEnergyOverdrawMaintenance 0
scalar OsgEarthNet.uav[88] utilizationCountMissions 57
scalar OsgEarthNet.uav[88] utilizationCountManeuversMission 759
scalar OsgEarthNet.uav[88] utilizationCountManeuversMaintenance 114
scalar OsgEarthNet.uav[88] utilizationCountChargeState 57
scalar OsgEarthNet.uav[88] utilizationCountOverdrawnAfterMission 0
scalar OsgEarthNet.uav[88] utilizationCountIdleState 11
scalar OsgEarthNet.uav[88] utilizationFail 0
scalar OsgEarthNet.uav[88] simulationTime 259200
scalar OsgEarthNet.uav[89] utilizationSecMission 7465.1814780624
scalar OsgEarthNet.uav[89] utilizationSecMaintenance 3593.8313099797
scalar OsgEarthNet.uav[89] utilizationSecCharge 40960
scalar OsgEarthNet.uav[89] utilizationSecIdle 207180.98621196
scalar OsgEarthNet.uav[89] utilizationEnergyMission 34294.025650024
scalar OsgEarthNet.uav[89] utilizationEnergyMaintenance 16837.580997467
scalar OsgEarthNet.uav[89] utilizationEnergyCharge 51131.609863281
scalar OsgEarthNet.uav[89] utilizationEnergyOverdrawMission 0
scalar OsgEarthNet.uav[89] utilizationEnergyOverdrawMaintenance 0
scalar OsgEarthNet.uav[89] utilizationCountMissions 11
scalar OsgEarthNet.uav[89] utilizationCountManeuversMission 119
scalar OsgEarthNet.uav[89] utilizationCountManeuversMaintenance 22
scalar OsgEarthNet.uav[89] utilizationCountChargeState 11
scalar OsgEarthNet.uav[89] utilizationCountOverdrawnAfterMission 0
scalar OsgEarthNet.uav[89] utilizationCountIdleState 12
scalar OsgEarthNet.uav[89] utilizationFail 0
scalar OsgEarthNet.uav[89] simulationTime 259200
scalar OsgEarthNet.uav[90] utilizationSecMission 12302.328677934
scalar OsgEarthNet.uav[90] utilizationSecMaintenance 4188.8117673621
scalar OsgEarthNet.uav[90] utilizationSecCharge 62630
scalar OsgEarthNet.uav[90] utilizationSecIdle 180078.8585547
scalar OsgEarthNet.uav[90] utilizationEnergyMission 57788.913917542
scalar OsgEarthNet.uav[90] utilizationEnergyMaintenance 20131.955974579
scalar OsgEarthNet.uav[90] utilizationEnergyCharge 77920.874023438
scalar OsgEarthNet.uav[90] utilizationEnergyOverdrawMission 0
scalar OsgEarthNet.uav[90] utilizationEnergyOverdrawMaintenance 0
scalar OsgEarthNet.uav[90] utilizationCountMissions 17
scalar OsgEarthNet.uav[90] utilizationCountManeuversMission 187
scalar OsgEarthNet.uav[90] utilizationCountManeuversMaintenance 34
scalar OsgEarthNet.uav[90] utilizationCountChargeState 17
scalar OsgEarthNet.uav[90] utilizationCountOverdrawnAfterMission 0
scalar OsgEarthNet.uav[90] utilizationCountIdleState 18
scalar OsgEarthNet.uav[90] utilizationFail 0
scalar OsgEarthNet.uav[90] simulationTime 259200
scalar OsgEarthNet.uav[91] utilizationSecMission 1765.3056665805
scalar OsgEarthNet.uav[91] utilizationSecMaintenance 1191.1871500127
scalar OsgEarthNet.uav[91] utilizationSecCharge 11270
scalar OsgEarthNet.uav[91] utilizationSecIdle 244973.50618341
scalar OsgEarthNet.uav[91] utilizationEnergyMission 8141.6858978272
scalar OsgEarthNet.uav[91] utilizationEnergyMaintenance 6006.3214454651
scalar OsgEarthNet.uav[91] utilizationEnergyCharge 14148.002929688
scalar OsgEarthNet.uav[91] utilizationEnergyOverdrawMission 0
scalar OsgEarthNet.uav[91] utilizationEnergyOverdrawMaintenance 0
scalar OsgEarthNet.uav[91] utilizationCountMissions 3
scalar OsgEarthNet.uav[91] utilizationCountManeuversMission 28
scalar OsgEarthNet.uav[91] utilizationCountManeuversMaintenance 6
scalar OsgEarthNet.uav[91] utilizationCountChargeState 3
scalar OsgEarthNet.uav[91] utilizationCountOverdrawnAfterMission 0
scalar OsgEarthNet.uav[91] utilizationCountIdleState 4
scalar OsgEarthNet.uav[91] utilizationFail 0
scalar OsgEarthNet.uav[91] simulationTime 259200
scalar OsgEarthNet.uav[92] utilizationSecMission 5795.8298299208
scalar OsgEarthNet.uav[92] utilizationSecMaintenance 2310.4322137441
scalar OsgEarthNet.uav[92] utilizationSecCharge 30300
scalar OsgEarthNet.uav[92] utilizationSecIdle 220793.73695634
scalar OsgEarthNet.uav[92] utilizationEnergyMission 27670.877540588
scalar OsgEarthNet.uav[92] utilizationEnergyMaintenance 10797.503723145
scalar OsgEarthNet.uav[92] utilizationEnergyCharge 38217.950195312
scalar OsgEarthNet.uav[92] utilizationEnergyOverdrawMission 0
scalar OsgEarthNet.uav[92] utilizationEnergyOverdrawMaintenance 0
scalar OsgEarthNet.uav[92] utilizationCountMissions 8
scalar OsgEarthNet.uav[92] utilizationCountManeuversMission 91
scalar OsgEarthNet.uav[92] utilizationCountManeuversMaintenance 16
scalar OsgEarthNet.uav[92] utilizationCountChargeState 8
scalar OsgEarthNet.uav[92] utilizationCountOverdrawnAfterMission 0
scalar OsgEarthNet.uav[92] utilizationCountIdleState 8
scalar OsgEarthNet.uav[92] utilizationFail 0
scalar OsgEarthNet.uav[92] simulationTime 259200
scalar OsgEarthNet.uav[93] utilizationSecMission 3816.2210315012
scalar OsgEarthNet.uav[93] utilizationSecMaintenance 2312.5297648811
scalar OsgEarthNet.uav[93] utilizationSecCharge 22510
scalar OsgEarthNet.uav[93] utilizationSecIdle 230561.24820362
scalar OsgEarthNet.uav[93] utilizationEnergyMission 17409.309127808
scalar OsgEarthNet.uav[93] utilizationEnergyMaintenance 10840.849445343
scalar OsgEarthNet.uav[93] utilizationEnergyCharge 28250.163085938
scalar OsgEarthNet.uav[93] utilizationEnergyOverdrawMission 0
scalar OsgEarthNet.uav[93] utilizationEnergyOverdrawMaintenance 0
scalar OsgEarthNet.uav[93] utilizationCountMissions 6
scalar OsgEarthNet.uav[93] utilizationCountManeuversMission 63
scalar OsgEarthNet.uav[93] utilizationCountManeuversMaintenance 12
scalar OsgEarthNet.uav[93] utilizationCountChargeState 6
scalar OsgEarthNet.uav[93] utilizationCountOverdrawnAfterMission 0
scalar OsgEarthNet.uav[93] utilizationCountIdleState 7
scalar OsgEarthNet.uav[93] utilizationFail 0
scalar OsgEarthNet.uav[93] simulationTime 259200
scalar OsgEarthNet.uav[94] utilizationSecMission 18977.912244816
scalar OsgEarthNet.uav[94] utilizationSecMaintenance 6628.6212694706
scalar OsgEarthNet.uav[94] utilizationSecCharge 95550
scalar OsgEarthNet.uav[94] utilizationSecIdle 138043.46548571
scalar OsgEarthNet.uav[94] utilizationEnergyMission 87355.668777466
scalar OsgEarthNet.uav[94] utilizationEnergyMaintenance 31597.385257721
scalar OsgEarthNet.uav[94] utilizationEnergyCharge 118629.53125
scalar OsgEarthNet.uav[94] utilizationEnergyOverdrawMission 0
scalar OsgEarthNet.uav[94] utilizationEnergyOverdrawMaintenance 0
scalar OsgEarthNet.uav[94] utilizationCountMissions 26
scalar OsgEarthNet.uav[94] utilizationCountManeuversMission 291
scalar OsgEarthNet.uav[94] utilizationCountManeuversMaintenance 52
scalar OsgEarthNet.uav[94] utilizationCountChargeState 26
scalar OsgEarthNet.uav[94] utilizationCountOverdrawnAfterMission 0
scalar OsgEarthNet.uav[94] utilizationCountIdleState 27
scalar OsgEarthNet.uav[94] utilizationFail 0
scalar OsgEarthNet.uav[94] simulationTime 259200
scalar OsgEarthNet.uav[95] utilizationSecMission 44917.191244092
scalar OsgEarthNet.uav[95] utilizationSecMaintenance 13599.609377496
scalar OsgEarthNet.uav[95] utilizationSecCharge 193870
scalar OsgEarthNet.uav[95] utilizationSecIdle 6813.1983784119
scalar OsgEarthNet.uav[95] utilizationEnergyMission 205527.32382151
scalar OsgEarthNet.uav[95] utilizationEnergyMaintenance 62889.106163025
scalar OsgEarthNet.uav[95] utilizationEnergyCharge 268310.49316406
scalar OsgEarthNet.uav[95] utilizationEnergyOverdrawMission 0
scalar OsgEarthNet.uav[95] utilizationEnergyOverdrawMaintenance 0
scalar OsgEarthNet.uav[95] utilizationCountMissions 57
scalar OsgEarthNet.uav[95] utilizationCountManeuversMission 772
scalar OsgEarthNet.uav[95] utilizationCountManeuversMaintenance 115
scalar OsgEarthNet.uav[95] utilizationCountChargeState 57
scalar OsgEarthNet.uav[95] utilizationCountOverdrawnAfterMission 0
scalar OsgEarthNet.uav[95] utilizationCountIdleState 8
scalar OsgEarthNet.uav[95] utilizationFail 0
scalar OsgEarthNet.uav[95] simulationTime 259200
scalar OsgEarthNet.uav[96] utilizationSecMission 16357.863285823
scalar OsgEarthNet.uav[96] utilizationSecMaintenance 5445.1341098182
scalar OsgEarthNet.uav[96] utilizationSecCharge 81330
scalar OsgEarthNet.uav[96] utilizationSecIdle 156067.00160436
scalar OsgEarthNet.uav[96] utilizationEnergyMission 75934.18913269
scalar OsgEarthNet.uav[96] utilizationEnergyMaintenance 25610.290016174
scalar OsgEarthNet.uav[96] utilizationEnergyCharge 101254.06494141
scalar OsgEarthNet.uav[96] utilizationEnergyOverdrawMission 0
scalar OsgEarthNet.uav[96] utilizationEnergyOverdrawMaintenance 0
scalar OsgEarthNet.uav[96] utilizationCountMissions 22
scalar OsgEarthNet.uav[96] utilizationCountManeuversMission 249
scalar OsgEarthNet.uav[96] utilizationCountManeuversMaintenance 44
scalar OsgEarthNet.uav[96] utilizationCountChargeState 22
scalar OsgEarthNet.uav[96] utilizationCountOverdrawnAfterMission 0
scalar OsgEarthNet.uav[96] utilizationCountIdleState 23
scalar OsgEarthNet.uav[96] utilizationFail 0
scalar OsgEarthNet.uav[96] simulationTime 259200
scalar OsgEarthNet.uav[97] utilizationSecMission 13947.427993341
scalar OsgEarthNet.uav[97] utilizationSecMaintenance 7235.8068489498
scalar OsgEarthNet.uav[97] utilizationSecCharge 77940
scalar OsgEarthNet.uav[97] utilizationSecIdle 160076.76415771
scalar OsgEarthNet.uav[97] utilizationEnergyMission 64668.24369812
scalar OsgEarthNet.uav[97] utilizationEnergyMaintenance 34314.254615784
scalar OsgEarthNet.uav[97] utilizationEnergyCharge 98982.481933594
scalar OsgEarthNet.uav[97] utilizationEnergyOverdrawMission 0
scalar OsgEarthNet.uav[97] utilizationEnergyOverdrawMaintenance 0
scalar OsgEarthNet.uav[97] utilizationCountMissions 21
scalar OsgEarthNet.uav[97] utilizationCountManeuversMission 236
scalar OsgEarthNet.uav[97] utilizationCountManeuversMaintenance 42
scalar OsgEarthNet.uav[97] utilizationCountChargeState 21
scalar OsgEarthNet.uav[97] utilizationCountOverdrawnAfterMission 0
scalar OsgEarthNet.uav[97] utilizationCountIdleState 18
scalar OsgEarthNet.uav[97] utilizationFail 0
scalar OsgEarthNet.uav[97] simulationTime 259200
scalar OsgEarthNet.uav[98] utilizationSecMission 5733.2502094425
scalar OsgEarthNet.uav[98] utilizationSecMaintenance 2254.7175954138
scalar OsgEarthNet.uav[98] utilizationSecCharge 29520
scalar OsgEarthNet.uav[98] utilizationSecIdle 221692.03119514
scalar OsgEarthNet.uav[98] utilizationEnergyMission 26502.772781372
scalar OsgEarthNet.uav[98] utilizationEnergyMaintenance 10800.974681854
scalar OsgEarthNet.uav[98] utilizationEnergyCharge 37259.908203125
scalar OsgEarthNet.uav[98] utilizationEnergyOverdrawMission 0
scalar OsgEarthNet.uav[98] utilizationEnergyOverdrawMaintenance 0
scalar OsgEarthNet.uav[98] utilizationCountMissions 8
scalar OsgEarthNet.uav[98] utilizationCountManeuversMission 90
scalar OsgEarthNet.uav[98] utilizationCountManeuversMaintenance 16
scalar OsgEarthNet.uav[98] utilizationCountChargeState 8
scalar OsgEarthNet.uav[98] utilizationCountOverdrawnAfterMission 0
scalar OsgEarthNet.uav[98] utilizationCountIdleState 8
scalar OsgEarthNet.uav[98] utilizationFail 0
scalar OsgEarthNet.uav[98] simulationTime 259200
scalar OsgEarthNet.uav[99] utilizationSecMission 6615.1736376103
scalar OsgEarthNet.uav[99] utilizationSecMaintenance 2346.9177713369
scalar OsgEarthNet.uav[99] utilizationSecCharge 33580
scalar OsgEarthNet.uav[99] utilizationSecIdle 216657.90759105
scalar OsgEarthNet.uav[99] utilizationEnergyMission 30473.450668335
scalar OsgEarthNet.uav[99] utilizationEnergyMaintenance 11428.273143768
scalar OsgEarthNet.uav[99] utilizationEnergyCharge 41901.721191406
scalar OsgEarthNet.uav[99] utilizationEnergyOverdrawMission 0
scalar OsgEarthNet.uav[99] utilizationEnergyOverdrawMaintenance 0
scalar OsgEarthNet.uav[99] utilizationCountMissions 9
scalar OsgEarthNet.uav[99] utilizationCountManeuversMission 102
scalar OsgEarthNet.uav[99] utilizationCountManeuversMaintenance 18
scalar OsgEarthNet.uav[99] utilizationCountChargeState 9
scalar OsgEarthNet.uav[99] utilizationCountOverdrawnAfterMission 0
scalar OsgEarthNet.uav[99] utilizationCountIdleState 10
scalar OsgEarthNet.uav[99] utilizationFail 0
scalar OsgEarthNet.uav[99] simulationTime 259200
scalar OsgEarthNet.cs[0] usedPower 4886.8107165114
scalar OsgEarthNet.cs[0] chargedPower 4886.8107165114
scalar OsgEarthNet.cs[0] chargedMobileNodes 1
scalar OsgEarthNet.cs[0] reservations 1
scalar OsgEarthNet.cs[1] usedPower 973723.25392598
scalar OsgEarthNet.cs[1] chargedPower 973723.25392598
scalar OsgEarthNet.cs[1] chargedMobileNodes 205
scalar OsgEarthNet.cs[1] reservations 208
scalar OsgEarthNet.cs[2] usedPower 3090199.4712072
scalar OsgEarthNet.cs[2] chargedPower 3090199.4712072
scalar OsgEarthNet.cs[2] chargedMobileNodes 116
scalar OsgEarthNet.cs[2] reservations 661
scalar OsgEarthNet.cs[3] usedPower 0
scalar OsgEarthNet.cs[3] chargedPower 0
scalar OsgEarthNet.cs[3] chargedMobileNodes 0
scalar OsgEarthNet.cs[3] reservations 0
scalar OsgEarthNet.cs[4] usedPower 632600.22693689
scalar OsgEarthNet.cs[4] chargedPower 632600.22693689
scalar OsgEarthNet.cs[4] chargedMobileNodes 98
scalar OsgEarthNet.cs[4] reservations 136
scalar OsgEarthNet.cs[5] usedPower 234180.32107506
scalar OsgEarthNet.cs[5] chargedPower 234180.32107506
scalar OsgEarthNet.cs[5] chargedMobileNodes 38
scalar OsgEarthNet.cs[5] reservations 50
scalar OsgEarthNet.cs[6] usedPower 3146769.4715879
scalar OsgEarthNet.cs[6] chargedPower 3146769.4715879
scalar OsgEarthNet.cs[6] chargedMobileNodes 674
scalar OsgEarthNet.cs[6] reservations 684

