version 2
run Szenario_Hotel_Gabelbach-0-20180710-12:10:48-35692
attr configname Szenario_Hotel_Gabelbach
attr datetime 20180710-12:10:48
attr experiment Szenario_Hotel_Gabelbach
attr inifile omnetpp.ini
attr iterationvars "$numUAVs=50, $replM=0, $replSearchM=0"
attr iterationvarsf numUAVs=50,replM=0,replSearchM=0-
attr measurement "$numUAVs=50, $replM=0, $replSearchM=0"
attr network OsgEarthNet
attr processid 35692
attr repetition 0
attr replication #0
attr resultdir results
attr runnumber 0
attr seedset 0
itervar numUAVs 50
itervar replM 0
itervar replSearchM 0
param *.osgEarthScene.scene "\"Szenario_Hotel_Gabelbach.earth\""
param *.playgroundLatitude 50.6830269
param *.playgroundLongitude 10.8538055
param *.playgroundWidth 3500m
param *.playgroundHeight 3500m
param *.cs[0].posX 3537m
param *.cs[0].posY 965m
param *.cs[0].posZ 538m
param *.cs[1].posX 312m
param *.cs[1].posY 1262m
param *.cs[1].posZ 539m
param *.cs[2].posX 2185m
param *.cs[2].posY 3026m
param *.cs[2].posZ 777m
param *.cs[3].posX 10m
param *.cs[3].posY 2200m
param *.cs[3].posZ 560m
param *.cs[4].posX 750m
param *.cs[4].posY 200m
param *.cs[4].posZ 540m
param *.cs[5].posX 2450m
param *.cs[5].posY 180m
param *.cs[5].posZ 524m
param *.cs[6].posX 3140m
param *.cs[6].posY 1790m
param *.cs[6].posZ 606m
param *.numCSs 7
param *.numUAVs 50
param *.uav[*].replacementMethod 0
param *.missionControl.replacementSearchMethod 0
param *.*.timeStep 10s
param *.uav[*].commandPreviewCommandCount 20
param *.missionControl.missionFiles "\"missions\\\\Szenario_WB_Hotel_Gabelbach_Mission_Hotel.waypoints,missions\\\\Szenario_WB_Hotel_Gabelbach_Mission_Kickelhahn.waypoints,missions\\\\Szenario_WB_Hotel_Gabelbach_Mission_Ilmenau_Sportplatz.waypoints,missions\\\\Szenario_WB_Hotel_Gabelbach_Mission_Manebach_Mitte.waypoints,missions\\\\Szenario_WB_Hotel_Gabelbach_Mission_Manebach_Sued.waypoints\""
param *.missionControl.missionFiles "\"missions\\\\Szenario_WB_Hotel_Gabelbach_Mission_Hotel.waypoints,missions\\\\Szenario_WB_Hotel_Gabelbach_Mission_Kickelhahn.waypoints,missions\\\\Szenario_WB_Hotel_Gabelbach_Mission_Ilmenau_Sportplatz.waypoints,missions\\\\Szenario_WB_Hotel_Gabelbach_Mission_Manebach_Mitte.waypoints,missions\\\\Szenario_WB_Hotel_Gabelbach_Mission_Manebach_Sued.waypoints,missions\\\\Szenario_WB_Hotel_Gabelbach_Hover_HoheSchlaufe.waypoints,missions\\\\Szenario_WB_Hotel_Gabelbach_Hover_Kickelhahn.waypoints,missions\\\\Szenario_WB_Hotel_Gabelbach_Hover_Gabelbachskopf.waypoints,missions\\\\Szenario_WB_Hotel_Gabelbach_Hover_Dachskopf.waypoints\""
param *.uav[0].startX 3537m
param *.uav[0].startY 965m
param *.uav[0].startZ 539m
param *.uav[1].startX 312m
param *.uav[1].startY 1262m
param *.uav[1].startZ 540m
param *.uav[2].startX 2185m
param *.uav[2].startY 3026m
param *.uav[2].startZ 778m
param *.uav[3].startX 3537m
param *.uav[3].startY 965m
param *.uav[3].startZ 539m
param *.uav[4].startX 312m
param *.uav[4].startY 1262m
param *.uav[4].startZ 540m
param *.uav[5].startX 2185m
param *.uav[5].startY 3026m
param *.uav[5].startZ 778m
param *.uav[6].startX 3537m
param *.uav[6].startY 965m
param *.uav[6].startZ 539m
param *.uav[7].startX 312m
param *.uav[7].startY 1262m
param *.uav[7].startZ 540m
param *.uav[8].startX 2185m
param *.uav[8].startY 3026m
param *.uav[8].startZ 778m
param *.uav[9].startX 3537m
param *.uav[9].startY 965m
param *.uav[9].startZ 539m
param *.uav[10].startX 3537m
param *.uav[10].startY 965m
param *.uav[10].startZ 539m
param *.uav[11].startX 312m
param *.uav[11].startY 1262m
param *.uav[11].startZ 540m
param *.uav[12].startX 2185m
param *.uav[12].startY 3026m
param *.uav[12].startZ 778m
param *.uav[13].startX 3537m
param *.uav[13].startY 965m
param *.uav[13].startZ 539m
param *.uav[14].startX 312m
param *.uav[14].startY 1262m
param *.uav[14].startZ 540m
param *.uav[15].startX 2185m
param *.uav[15].startY 3026m
param *.uav[15].startZ 778m
param *.uav[16].startX 3537m
param *.uav[16].startY 965m
param *.uav[16].startZ 539m
param *.uav[17].startX 312m
param *.uav[17].startY 1262m
param *.uav[17].startZ 540m
param *.uav[18].startX 2185m
param *.uav[18].startY 3026m
param *.uav[18].startZ 778m
param *.uav[19].startX 3537m
param *.uav[19].startY 965m
param *.uav[19].startZ 539m
param *.uav[20].startX 3537m
param *.uav[20].startY 965m
param *.uav[20].startZ 539m
param *.uav[21].startX 312m
param *.uav[21].startY 1262m
param *.uav[21].startZ 540m
param *.uav[22].startX 2185m
param *.uav[22].startY 3026m
param *.uav[22].startZ 778m
param *.uav[23].startX 3537m
param *.uav[23].startY 965m
param *.uav[23].startZ 539m
param *.uav[24].startX 312m
param *.uav[24].startY 1262m
param *.uav[24].startZ 540m
param *.uav[25].startX 2185m
param *.uav[25].startY 3026m
param *.uav[25].startZ 778m
param *.uav[26].startX 3537m
param *.uav[26].startY 965m
param *.uav[26].startZ 539m
param *.uav[27].startX 312m
param *.uav[27].startY 1262m
param *.uav[27].startZ 540m
param *.uav[28].startX 2185m
param *.uav[28].startY 3026m
param *.uav[28].startZ 778m
param *.uav[29].startX 3537m
param *.uav[29].startY 965m
param *.uav[29].startZ 539m
param *.uav[30].startX 3537m
param *.uav[30].startY 965m
param *.uav[30].startZ 539m
param *.uav[31].startX 312m
param *.uav[31].startY 1262m
param *.uav[31].startZ 540m
param *.uav[32].startX 2185m
param *.uav[32].startY 3026m
param *.uav[32].startZ 778m
param *.uav[33].startX 3537m
param *.uav[33].startY 965m
param *.uav[33].startZ 539m
param *.uav[34].startX 312m
param *.uav[34].startY 1262m
param *.uav[34].startZ 540m
param *.uav[35].startX 2185m
param *.uav[35].startY 3026m
param *.uav[35].startZ 778m
param *.uav[36].startX 3537m
param *.uav[36].startY 965m
param *.uav[36].startZ 539m
param *.uav[37].startX 312m
param *.uav[37].startY 1262m
param *.uav[37].startZ 540m
param *.uav[38].startX 2185m
param *.uav[38].startY 3026m
param *.uav[38].startZ 778m
param *.uav[39].startX 3537m
param *.uav[39].startY 965m
param *.uav[39].startZ 539m
param *.uav[40].startX 3537m
param *.uav[40].startY 965m
param *.uav[40].startZ 539m
param *.uav[41].startX 312m
param *.uav[41].startY 1262m
param *.uav[41].startZ 540m
param *.uav[42].startX 2185m
param *.uav[42].startY 3026m
param *.uav[42].startZ 778m
param *.uav[43].startX 3537m
param *.uav[43].startY 965m
param *.uav[43].startZ 539m
param *.uav[44].startX 312m
param *.uav[44].startY 1262m
param *.uav[44].startZ 540m
param *.uav[45].startX 2185m
param *.uav[45].startY 3026m
param *.uav[45].startZ 778m
param *.uav[46].startX 3537m
param *.uav[46].startY 965m
param *.uav[46].startZ 539m
param *.uav[47].startX 312m
param *.uav[47].startY 1262m
param *.uav[47].startZ 540m
param *.uav[48].startX 2185m
param *.uav[48].startY 3026m
param *.uav[48].startZ 778m
param *.uav[49].startX 3537m
param *.uav[49].startY 965m
param *.uav[49].startZ 539m
param *.uav[50].startX 3537m
param *.uav[50].startY 965m
param *.uav[50].startZ 539m
param *.uav[51].startX 312m
param *.uav[51].startY 1262m
param *.uav[51].startZ 540m
param *.uav[52].startX 2185m
param *.uav[52].startY 3026m
param *.uav[52].startZ 778m
param *.uav[53].startX 3537m
param *.uav[53].startY 965m
param *.uav[53].startZ 539m
param *.uav[54].startX 312m
param *.uav[54].startY 1262m
param *.uav[54].startZ 540m
param *.uav[55].startX 2185m
param *.uav[55].startY 3026m
param *.uav[55].startZ 778m
param *.uav[56].startX 3537m
param *.uav[56].startY 965m
param *.uav[56].startZ 539m
param *.uav[57].startX 312m
param *.uav[57].startY 1262m
param *.uav[57].startZ 540m
param *.uav[58].startX 2185m
param *.uav[58].startY 3026m
param *.uav[58].startZ 778m
param *.uav[59].startX 3537m
param *.uav[59].startY 965m
param *.uav[59].startZ 539m
param *.uav[60].startX 3537m
param *.uav[60].startY 965m
param *.uav[60].startZ 539m
param *.uav[61].startX 312m
param *.uav[61].startY 1262m
param *.uav[61].startZ 540m
param *.uav[62].startX 2185m
param *.uav[62].startY 3026m
param *.uav[62].startZ 778m
param *.uav[63].startX 3537m
param *.uav[63].startY 965m
param *.uav[63].startZ 539m
param *.uav[64].startX 312m
param *.uav[64].startY 1262m
param *.uav[64].startZ 540m
param *.uav[65].startX 2185m
param *.uav[65].startY 3026m
param *.uav[65].startZ 778m
param *.uav[66].startX 3537m
param *.uav[66].startY 965m
param *.uav[66].startZ 539m
param *.uav[67].startX 312m
param *.uav[67].startY 1262m
param *.uav[67].startZ 540m
param *.uav[68].startX 2185m
param *.uav[68].startY 3026m
param *.uav[68].startZ 778m
param *.uav[69].startX 3537m
param *.uav[69].startY 965m
param *.uav[69].startZ 539m
param *.uav[70].startX 3537m
param *.uav[70].startY 965m
param *.uav[70].startZ 539m
param *.uav[71].startX 312m
param *.uav[71].startY 1262m
param *.uav[71].startZ 540m
param *.uav[72].startX 2185m
param *.uav[72].startY 3026m
param *.uav[72].startZ 778m
param *.uav[73].startX 3537m
param *.uav[73].startY 965m
param *.uav[73].startZ 539m
param *.uav[74].startX 312m
param *.uav[74].startY 1262m
param *.uav[74].startZ 540m
param *.uav[75].startX 2185m
param *.uav[75].startY 3026m
param *.uav[75].startZ 778m
param *.uav[76].startX 3537m
param *.uav[76].startY 965m
param *.uav[76].startZ 539m
param *.uav[77].startX 312m
param *.uav[77].startY 1262m
param *.uav[77].startZ 540m
param *.uav[78].startX 2185m
param *.uav[78].startY 3026m
param *.uav[78].startZ 778m
param *.uav[79].startX 3537m
param *.uav[79].startY 965m
param *.uav[79].startZ 539m
param *.uav[80].startX 3537m
param *.uav[80].startY 965m
param *.uav[80].startZ 539m
param *.uav[81].startX 312m
param *.uav[81].startY 1262m
param *.uav[81].startZ 540m
param *.uav[82].startX 2185m
param *.uav[82].startY 3026m
param *.uav[82].startZ 778m
param *.uav[83].startX 3537m
param *.uav[83].startY 965m
param *.uav[83].startZ 539m
param *.uav[84].startX 312m
param *.uav[84].startY 1262m
param *.uav[84].startZ 540m
param *.uav[85].startX 2185m
param *.uav[85].startY 3026m
param *.uav[85].startZ 778m
param *.uav[86].startX 3537m
param *.uav[86].startY 965m
param *.uav[86].startZ 539m
param *.uav[87].startX 312m
param *.uav[87].startY 1262m
param *.uav[87].startZ 540m
param *.uav[88].startX 2185m
param *.uav[88].startY 3026m
param *.uav[88].startZ 778m
param *.uav[89].startX 3537m
param *.uav[89].startY 965m
param *.uav[89].startZ 539m
param *.uav[90].startX 3537m
param *.uav[90].startY 965m
param *.uav[90].startZ 539m
param *.uav[91].startX 312m
param *.uav[91].startY 1262m
param *.uav[91].startZ 540m
param *.uav[92].startX 2185m
param *.uav[92].startY 3026m
param *.uav[92].startZ 778m
param *.uav[93].startX 3537m
param *.uav[93].startY 965m
param *.uav[93].startZ 539m
param *.uav[94].startX 312m
param *.uav[94].startY 1262m
param *.uav[94].startZ 540m
param *.uav[95].startX 2185m
param *.uav[95].startY 3026m
param *.uav[95].startZ 778m
param *.uav[96].startX 3537m
param *.uav[96].startY 965m
param *.uav[96].startZ 539m
param *.uav[97].startX 312m
param *.uav[97].startY 1262m
param *.uav[97].startZ 540m
param *.uav[98].startX 2185m
param *.uav[98].startY 3026m
param *.uav[98].startZ 778m
param *.uav[99].startX 3537m
param *.uav[99].startY 965m
param *.uav[99].startZ 539m
param *.osgEarthScene.scene "\"boston.earth\""
param *.playgroundLatitude 42.3558
param *.playgroundLongitude -71.0677
param *.playgroundWidth 400m
param *.playgroundHeight 200m
param *.channelController.connectionColor "\"#0000FF40\""
param *.channelController.showConnections false
param *.uav[*].modelURL "\"quadrocopter.small.obj.15.scale.0,0,90.rot\""
param *.uav[*].labelColor "\"#FF7C00CC\""
param *.uav[*].label2Color "\"#FF7C00EE\""
param *.uav[*].batteryCapacity 5200mAh
param *.uav[*].batteryRemaining uav[index].batteryCapacity
param *.uav[*].predictionQuantile 0.95
param *.uav[*].replacementMethod 2
param *.uav[*].weightedSumWeight 0.5
param *.cs[*].modelURL "\"chargingstation_v1.osgt.2.scale.0,0,0.rot.0,0,-15e-1.trans\""
param *.cs[*].spotsWaiting 999
param *.cs[*].spotsCharging 999
param *.cs[*].chargeEffectivenessPercentage 100
param *.cs[*].nonLinearPhaseStartPercentage 85
param *.cs[*].chargeCurrent 6.0A
param *.cs[*].prioritizeFastCharge true
param *.missionControl.replacementSearchMethod 0
param *.*.timeStep 9s

scalar OsgEarthNet.uav[0] utilizationSecMission 26159.989288417
scalar OsgEarthNet.uav[0] utilizationSecMaintenance 12624.397610818
scalar OsgEarthNet.uav[0] utilizationSecCharge 142119.47872963
scalar OsgEarthNet.uav[0] utilizationSecIdle 78296.133371134
scalar OsgEarthNet.uav[0] utilizationEnergyMission 121213.4661026
scalar OsgEarthNet.uav[0] utilizationEnergyMaintenance 59002.107723236
scalar OsgEarthNet.uav[0] utilizationEnergyCharge 178760.11328125
scalar OsgEarthNet.uav[0] utilizationEnergyOverdrawMission 0
scalar OsgEarthNet.uav[0] utilizationEnergyOverdrawMaintenance 0
scalar OsgEarthNet.uav[0] utilizationCountMissions 39
scalar OsgEarthNet.uav[0] utilizationCountManeuversMission 430
scalar OsgEarthNet.uav[0] utilizationCountManeuversMaintenance 78
scalar OsgEarthNet.uav[0] utilizationCountChargeState 39
scalar OsgEarthNet.uav[0] utilizationCountOverdrawnAfterMission 0
scalar OsgEarthNet.uav[0] utilizationCountIdleState 39
scalar OsgEarthNet.uav[0] utilizationFail 0
scalar OsgEarthNet.uav[0] simulationTime 259200
scalar OsgEarthNet.uav[1] utilizationSecMission 29722.255871474
scalar OsgEarthNet.uav[1] utilizationSecMaintenance 17045.862959265
scalar OsgEarthNet.uav[1] utilizationSecCharge 171487.17646518
scalar OsgEarthNet.uav[1] utilizationSecIdle 40944.703704081
scalar OsgEarthNet.uav[1] utilizationEnergyMission 138429.15517044
scalar OsgEarthNet.uav[1] utilizationEnergyMaintenance 79744.491882324
scalar OsgEarthNet.uav[1] utilizationEnergyCharge 215948.67626953
scalar OsgEarthNet.uav[1] utilizationEnergyOverdrawMission 0
scalar OsgEarthNet.uav[1] utilizationEnergyOverdrawMaintenance 0
scalar OsgEarthNet.uav[1] utilizationCountMissions 47
scalar OsgEarthNet.uav[1] utilizationCountManeuversMission 488
scalar OsgEarthNet.uav[1] utilizationCountManeuversMaintenance 94
scalar OsgEarthNet.uav[1] utilizationCountChargeState 47
scalar OsgEarthNet.uav[1] utilizationCountOverdrawnAfterMission 0
scalar OsgEarthNet.uav[1] utilizationCountIdleState 47
scalar OsgEarthNet.uav[1] utilizationFail 0
scalar OsgEarthNet.uav[1] simulationTime 259200
scalar OsgEarthNet.uav[2] utilizationSecMission 29850.495918449
scalar OsgEarthNet.uav[2] utilizationSecMaintenance 15934.53160219
scalar OsgEarthNet.uav[2] utilizationSecCharge 169613.29842777
scalar OsgEarthNet.uav[2] utilizationSecIdle 43801.673051586
scalar OsgEarthNet.uav[2] utilizationEnergyMission 138168.05153656
scalar OsgEarthNet.uav[2] utilizationEnergyMaintenance 74461.294147491
scalar OsgEarthNet.uav[2] utilizationEnergyCharge 212931.03857422
scalar OsgEarthNet.uav[2] utilizationEnergyOverdrawMission 0
scalar OsgEarthNet.uav[2] utilizationEnergyOverdrawMaintenance 0
scalar OsgEarthNet.uav[2] utilizationCountMissions 46
scalar OsgEarthNet.uav[2] utilizationCountManeuversMission 482
scalar OsgEarthNet.uav[2] utilizationCountManeuversMaintenance 92
scalar OsgEarthNet.uav[2] utilizationCountChargeState 46
scalar OsgEarthNet.uav[2] utilizationCountOverdrawnAfterMission 0
scalar OsgEarthNet.uav[2] utilizationCountIdleState 46
scalar OsgEarthNet.uav[2] utilizationFail 0
scalar OsgEarthNet.uav[2] simulationTime 259200
scalar OsgEarthNet.uav[3] utilizationSecMission 9446.0420180074
scalar OsgEarthNet.uav[3] utilizationSecMaintenance 4029.8876892378
scalar OsgEarthNet.uav[3] utilizationSecCharge 49100
scalar OsgEarthNet.uav[3] utilizationSecIdle 196624.06929275
scalar OsgEarthNet.uav[3] utilizationEnergyMission 43762.553833008
scalar OsgEarthNet.uav[3] utilizationEnergyMaintenance 18345.696372986
scalar OsgEarthNet.uav[3] utilizationEnergyCharge 61794.288818359
scalar OsgEarthNet.uav[3] utilizationEnergyOverdrawMission 0
scalar OsgEarthNet.uav[3] utilizationEnergyOverdrawMaintenance 0
scalar OsgEarthNet.uav[3] utilizationCountMissions 13
scalar OsgEarthNet.uav[3] utilizationCountManeuversMission 156
scalar OsgEarthNet.uav[3] utilizationCountManeuversMaintenance 26
scalar OsgEarthNet.uav[3] utilizationCountChargeState 13
scalar OsgEarthNet.uav[3] utilizationCountOverdrawnAfterMission 0
scalar OsgEarthNet.uav[3] utilizationCountIdleState 14
scalar OsgEarthNet.uav[3] utilizationFail 0
scalar OsgEarthNet.uav[3] simulationTime 259200
scalar OsgEarthNet.uav[4] utilizationSecMission 20584.513896216
scalar OsgEarthNet.uav[4] utilizationSecMaintenance 9987.9613670683
scalar OsgEarthNet.uav[4] utilizationSecCharge 112440
scalar OsgEarthNet.uav[4] utilizationSecIdle 116187.52373672
scalar OsgEarthNet.uav[4] utilizationEnergyMission 94409.506393433
scalar OsgEarthNet.uav[4] utilizationEnergyMaintenance 47164.453605652
scalar OsgEarthNet.uav[4] utilizationEnergyCharge 141219.30273438
scalar OsgEarthNet.uav[4] utilizationEnergyOverdrawMission 0
scalar OsgEarthNet.uav[4] utilizationEnergyOverdrawMaintenance 0
scalar OsgEarthNet.uav[4] utilizationCountMissions 30
scalar OsgEarthNet.uav[4] utilizationCountManeuversMission 323
scalar OsgEarthNet.uav[4] utilizationCountManeuversMaintenance 60
scalar OsgEarthNet.uav[4] utilizationCountChargeState 30
scalar OsgEarthNet.uav[4] utilizationCountOverdrawnAfterMission 0
scalar OsgEarthNet.uav[4] utilizationCountIdleState 31
scalar OsgEarthNet.uav[4] utilizationFail 0
scalar OsgEarthNet.uav[4] simulationTime 259200
scalar OsgEarthNet.uav[5] utilizationSecMission 27051.588856101
scalar OsgEarthNet.uav[5] utilizationSecMaintenance 13755.334803567
scalar OsgEarthNet.uav[5] utilizationSecCharge 149092.36728003
scalar OsgEarthNet.uav[5] utilizationSecIdle 69300.708060307
scalar OsgEarthNet.uav[5] utilizationEnergyMission 125282.99598694
scalar OsgEarthNet.uav[5] utilizationEnergyMaintenance 64871.135417938
scalar OsgEarthNet.uav[5] utilizationEnergyCharge 187101.34570312
scalar OsgEarthNet.uav[5] utilizationEnergyOverdrawMission 0
scalar OsgEarthNet.uav[5] utilizationEnergyOverdrawMaintenance 0
scalar OsgEarthNet.uav[5] utilizationCountMissions 41
scalar OsgEarthNet.uav[5] utilizationCountManeuversMission 437
scalar OsgEarthNet.uav[5] utilizationCountManeuversMaintenance 82
scalar OsgEarthNet.uav[5] utilizationCountChargeState 41
scalar OsgEarthNet.uav[5] utilizationCountOverdrawnAfterMission 0
scalar OsgEarthNet.uav[5] utilizationCountIdleState 41
scalar OsgEarthNet.uav[5] utilizationFail 0
scalar OsgEarthNet.uav[5] simulationTime 259200
scalar OsgEarthNet.uav[6] utilizationSecMission 15404.233908588
scalar OsgEarthNet.uav[6] utilizationSecMaintenance 5867.811392117
scalar OsgEarthNet.uav[6] utilizationSecCharge 78500
scalar OsgEarthNet.uav[6] utilizationSecIdle 159427.95369929
scalar OsgEarthNet.uav[6] utilizationEnergyMission 71747.347389221
scalar OsgEarthNet.uav[6] utilizationEnergyMaintenance 27594.715435028
scalar OsgEarthNet.uav[6] utilizationEnergyCharge 98627.388183594
scalar OsgEarthNet.uav[6] utilizationEnergyOverdrawMission 0
scalar OsgEarthNet.uav[6] utilizationEnergyOverdrawMaintenance 0
scalar OsgEarthNet.uav[6] utilizationCountMissions 21
scalar OsgEarthNet.uav[6] utilizationCountManeuversMission 249
scalar OsgEarthNet.uav[6] utilizationCountManeuversMaintenance 42
scalar OsgEarthNet.uav[6] utilizationCountChargeState 21
scalar OsgEarthNet.uav[6] utilizationCountOverdrawnAfterMission 0
scalar OsgEarthNet.uav[6] utilizationCountIdleState 22
scalar OsgEarthNet.uav[6] utilizationFail 0
scalar OsgEarthNet.uav[6] simulationTime 259200
scalar OsgEarthNet.uav[7] utilizationSecMission 28822.200003017
scalar OsgEarthNet.uav[7] utilizationSecMaintenance 17059.596436571
scalar OsgEarthNet.uav[7] utilizationSecCharge 168034.53637738
scalar OsgEarthNet.uav[7] utilizationSecIdle 45283.666183032
scalar OsgEarthNet.uav[7] utilizationEnergyMission 132140.19486237
scalar OsgEarthNet.uav[7] utilizationEnergyMaintenance 78993.871875763
scalar OsgEarthNet.uav[7] utilizationEnergyCharge 210727.39672852
scalar OsgEarthNet.uav[7] utilizationEnergyOverdrawMission 0
scalar OsgEarthNet.uav[7] utilizationEnergyOverdrawMaintenance 0
scalar OsgEarthNet.uav[7] utilizationCountMissions 46
scalar OsgEarthNet.uav[7] utilizationCountManeuversMission 476
scalar OsgEarthNet.uav[7] utilizationCountManeuversMaintenance 92
scalar OsgEarthNet.uav[7] utilizationCountChargeState 46
scalar OsgEarthNet.uav[7] utilizationCountOverdrawnAfterMission 0
scalar OsgEarthNet.uav[7] utilizationCountIdleState 46
scalar OsgEarthNet.uav[7] utilizationFail 0
scalar OsgEarthNet.uav[7] simulationTime 259200
scalar OsgEarthNet.uav[8] utilizationSecMission 21905.015949197
scalar OsgEarthNet.uav[8] utilizationSecMaintenance 13370.272295672
scalar OsgEarthNet.uav[8] utilizationSecCharge 129230
scalar OsgEarthNet.uav[8] utilizationSecIdle 94694.710755131
scalar OsgEarthNet.uav[8] utilizationEnergyMission 101845.90107643
scalar OsgEarthNet.uav[8] utilizationEnergyMaintenance 62638.442081451
scalar OsgEarthNet.uav[8] utilizationEnergyCharge 162230.85693359
scalar OsgEarthNet.uav[8] utilizationEnergyOverdrawMission 0
scalar OsgEarthNet.uav[8] utilizationEnergyOverdrawMaintenance 0
scalar OsgEarthNet.uav[8] utilizationCountMissions 35
scalar OsgEarthNet.uav[8] utilizationCountManeuversMission 363
scalar OsgEarthNet.uav[8] utilizationCountManeuversMaintenance 71
scalar OsgEarthNet.uav[8] utilizationCountChargeState 35
scalar OsgEarthNet.uav[8] utilizationCountOverdrawnAfterMission 0
scalar OsgEarthNet.uav[8] utilizationCountIdleState 36
scalar OsgEarthNet.uav[8] utilizationFail 0
scalar OsgEarthNet.uav[8] simulationTime 259200
scalar OsgEarthNet.uav[9] utilizationSecMission 3361.8340508954
scalar OsgEarthNet.uav[9] utilizationSecMaintenance 1444.6698683172
scalar OsgEarthNet.uav[9] utilizationSecCharge 18210
scalar OsgEarthNet.uav[9] utilizationSecIdle 236183.49508079
scalar OsgEarthNet.uav[9] utilizationEnergyMission 15850.449188232
scalar OsgEarthNet.uav[9] utilizationEnergyMaintenance 6956.7817459106
scalar OsgEarthNet.uav[9] utilizationEnergyCharge 22775.992675781
scalar OsgEarthNet.uav[9] utilizationEnergyOverdrawMission 0
scalar OsgEarthNet.uav[9] utilizationEnergyOverdrawMaintenance 0
scalar OsgEarthNet.uav[9] utilizationCountMissions 5
scalar OsgEarthNet.uav[9] utilizationCountManeuversMission 54
scalar OsgEarthNet.uav[9] utilizationCountManeuversMaintenance 10
scalar OsgEarthNet.uav[9] utilizationCountChargeState 5
scalar OsgEarthNet.uav[9] utilizationCountOverdrawnAfterMission 0
scalar OsgEarthNet.uav[9] utilizationCountIdleState 6
scalar OsgEarthNet.uav[9] utilizationFail 0
scalar OsgEarthNet.uav[9] simulationTime 259200
scalar OsgEarthNet.uav[10] utilizationSecMission 25061.995140065
scalar OsgEarthNet.uav[10] utilizationSecMaintenance 10794.373899731
scalar OsgEarthNet.uav[10] utilizationSecCharge 132840
scalar OsgEarthNet.uav[10] utilizationSecIdle 90503.629960204
scalar OsgEarthNet.uav[10] utilizationEnergyMission 114337.40962219
scalar OsgEarthNet.uav[10] utilizationEnergyMaintenance 51508.801204681
scalar OsgEarthNet.uav[10] utilizationEnergyCharge 166528.95996094
scalar OsgEarthNet.uav[10] utilizationEnergyOverdrawMission 0
scalar OsgEarthNet.uav[10] utilizationEnergyOverdrawMaintenance 0
scalar OsgEarthNet.uav[10] utilizationCountMissions 36
scalar OsgEarthNet.uav[10] utilizationCountManeuversMission 407
scalar OsgEarthNet.uav[10] utilizationCountManeuversMaintenance 72
scalar OsgEarthNet.uav[10] utilizationCountChargeState 36
scalar OsgEarthNet.uav[10] utilizationCountOverdrawnAfterMission 0
scalar OsgEarthNet.uav[10] utilizationCountIdleState 37
scalar OsgEarthNet.uav[10] utilizationFail 0
scalar OsgEarthNet.uav[10] simulationTime 259200
scalar OsgEarthNet.uav[11] utilizationSecMission 27735.907357389
scalar OsgEarthNet.uav[11] utilizationSecMaintenance 17387.776848167
scalar OsgEarthNet.uav[11] utilizationSecCharge 166180.18884618
scalar OsgEarthNet.uav[11] utilizationSecIdle 47896.125948265
scalar OsgEarthNet.uav[11] utilizationEnergyMission 127832.40258026
scalar OsgEarthNet.uav[11] utilizationEnergyMaintenance 81024.624073029
scalar OsgEarthNet.uav[11] utilizationEnergyCharge 209047.39013672
scalar OsgEarthNet.uav[11] utilizationEnergyOverdrawMission 0
scalar OsgEarthNet.uav[11] utilizationEnergyOverdrawMaintenance 0
scalar OsgEarthNet.uav[11] utilizationCountMissions 45
scalar OsgEarthNet.uav[11] utilizationCountManeuversMission 452
scalar OsgEarthNet.uav[11] utilizationCountManeuversMaintenance 90
scalar OsgEarthNet.uav[11] utilizationCountChargeState 45
scalar OsgEarthNet.uav[11] utilizationCountOverdrawnAfterMission 0
scalar OsgEarthNet.uav[11] utilizationCountIdleState 45
scalar OsgEarthNet.uav[11] utilizationFail 0
scalar OsgEarthNet.uav[11] simulationTime 259200
scalar OsgEarthNet.uav[12] utilizationSecMission 29398.017051727
scalar OsgEarthNet.uav[12] utilizationSecMaintenance 15027.702120704
scalar OsgEarthNet.uav[12] utilizationSecCharge 161038.82417095
scalar OsgEarthNet.uav[12] utilizationSecIdle 53735.45565662
scalar OsgEarthNet.uav[12] utilizationEnergyMission 135979.64840698
scalar OsgEarthNet.uav[12] utilizationEnergyMaintenance 70052.019039154
scalar OsgEarthNet.uav[12] utilizationEnergyCharge 202915.6151123
scalar OsgEarthNet.uav[12] utilizationEnergyOverdrawMission 0
scalar OsgEarthNet.uav[12] utilizationEnergyOverdrawMaintenance 0
scalar OsgEarthNet.uav[12] utilizationCountMissions 44
scalar OsgEarthNet.uav[12] utilizationCountManeuversMission 466
scalar OsgEarthNet.uav[12] utilizationCountManeuversMaintenance 88
scalar OsgEarthNet.uav[12] utilizationCountChargeState 44
scalar OsgEarthNet.uav[12] utilizationCountOverdrawnAfterMission 0
scalar OsgEarthNet.uav[12] utilizationCountIdleState 44
scalar OsgEarthNet.uav[12] utilizationFail 0
scalar OsgEarthNet.uav[12] simulationTime 259200
scalar OsgEarthNet.uav[13] utilizationSecMission 29483.352797549
scalar OsgEarthNet.uav[13] utilizationSecMaintenance 15543.880219923
scalar OsgEarthNet.uav[13] utilizationSecCharge 164940
scalar OsgEarthNet.uav[13] utilizationSecIdle 49232.765982528
scalar OsgEarthNet.uav[13] utilizationEnergyMission 136051.67520185
scalar OsgEarthNet.uav[13] utilizationEnergyMaintenance 71684.586982727
scalar OsgEarthNet.uav[13] utilizationEnergyCharge 206078.51660156
scalar OsgEarthNet.uav[13] utilizationEnergyOverdrawMission 0
scalar OsgEarthNet.uav[13] utilizationEnergyOverdrawMaintenance 0
scalar OsgEarthNet.uav[13] utilizationCountMissions 45
scalar OsgEarthNet.uav[13] utilizationCountManeuversMission 494
scalar OsgEarthNet.uav[13] utilizationCountManeuversMaintenance 91
scalar OsgEarthNet.uav[13] utilizationCountChargeState 45
scalar OsgEarthNet.uav[13] utilizationCountOverdrawnAfterMission 0
scalar OsgEarthNet.uav[13] utilizationCountIdleState 46
scalar OsgEarthNet.uav[13] utilizationFail 0
scalar OsgEarthNet.uav[13] simulationTime 259200
scalar OsgEarthNet.uav[14] utilizationSecMission 28867.266706426
scalar OsgEarthNet.uav[14] utilizationSecMaintenance 17956.650526014
scalar OsgEarthNet.uav[14] utilizationSecCharge 173680
scalar OsgEarthNet.uav[14] utilizationSecIdle 38696.081767559
scalar OsgEarthNet.uav[14] utilizationEnergyMission 134055.49808502
scalar OsgEarthNet.uav[14] utilizationEnergyMaintenance 83750.805023193
scalar OsgEarthNet.uav[14] utilizationEnergyCharge 217784.45263672
scalar OsgEarthNet.uav[14] utilizationEnergyOverdrawMission 0
scalar OsgEarthNet.uav[14] utilizationEnergyOverdrawMaintenance 0
scalar OsgEarthNet.uav[14] utilizationCountMissions 47
scalar OsgEarthNet.uav[14] utilizationCountManeuversMission 481
scalar OsgEarthNet.uav[14] utilizationCountManeuversMaintenance 94
scalar OsgEarthNet.uav[14] utilizationCountChargeState 47
scalar OsgEarthNet.uav[14] utilizationCountOverdrawnAfterMission 0
scalar OsgEarthNet.uav[14] utilizationCountIdleState 48
scalar OsgEarthNet.uav[14] utilizationFail 0
scalar OsgEarthNet.uav[14] simulationTime 259200
scalar OsgEarthNet.uav[15] utilizationSecMission 30228.024055136
scalar OsgEarthNet.uav[15] utilizationSecMaintenance 16399.833214694
scalar OsgEarthNet.uav[15] utilizationSecCharge 167452.96661976
scalar OsgEarthNet.uav[15] utilizationSecIdle 45119.175110411
scalar OsgEarthNet.uav[15] utilizationEnergyMission 137768.36710358
scalar OsgEarthNet.uav[15] utilizationEnergyMaintenance 76465.801200867
scalar OsgEarthNet.uav[15] utilizationEnergyCharge 210472.58679199
scalar OsgEarthNet.uav[15] utilizationEnergyOverdrawMission 0
scalar OsgEarthNet.uav[15] utilizationEnergyOverdrawMaintenance 0
scalar OsgEarthNet.uav[15] utilizationCountMissions 46
scalar OsgEarthNet.uav[15] utilizationCountManeuversMission 482
scalar OsgEarthNet.uav[15] utilizationCountManeuversMaintenance 92
scalar OsgEarthNet.uav[15] utilizationCountChargeState 46
scalar OsgEarthNet.uav[15] utilizationCountOverdrawnAfterMission 0
scalar OsgEarthNet.uav[15] utilizationCountIdleState 46
scalar OsgEarthNet.uav[15] utilizationFail 0
scalar OsgEarthNet.uav[15] simulationTime 259200
scalar OsgEarthNet.uav[16] utilizationSecMission 702.6942798579
scalar OsgEarthNet.uav[16] utilizationSecMaintenance 282.29565405678
scalar OsgEarthNet.uav[16] utilizationSecCharge 3470
scalar OsgEarthNet.uav[16] utilizationSecIdle 254745.00906609
scalar OsgEarthNet.uav[16] utilizationEnergyMission 3066.3622283936
scalar OsgEarthNet.uav[16] utilizationEnergyMaintenance 1204.4267082214
scalar OsgEarthNet.uav[16] utilizationEnergyCharge 4270.7915039062
scalar OsgEarthNet.uav[16] utilizationEnergyOverdrawMission 0
scalar OsgEarthNet.uav[16] utilizationEnergyOverdrawMaintenance 0
scalar OsgEarthNet.uav[16] utilizationCountMissions 1
scalar OsgEarthNet.uav[16] utilizationCountManeuversMission 10
scalar OsgEarthNet.uav[16] utilizationCountManeuversMaintenance 2
scalar OsgEarthNet.uav[16] utilizationCountChargeState 1
scalar OsgEarthNet.uav[16] utilizationCountOverdrawnAfterMission 0
scalar OsgEarthNet.uav[16] utilizationCountIdleState 2
scalar OsgEarthNet.uav[16] utilizationFail 0
scalar OsgEarthNet.uav[16] simulationTime 259200
scalar OsgEarthNet.uav[17] utilizationSecMission 28283.861824534
scalar OsgEarthNet.uav[17] utilizationSecMaintenance 16615.369500592
scalar OsgEarthNet.uav[17] utilizationSecCharge 163324.4214153
scalar OsgEarthNet.uav[17] utilizationSecIdle 50976.346259573
scalar OsgEarthNet.uav[17] utilizationEnergyMission 131065.52136612
scalar OsgEarthNet.uav[17] utilizationEnergyMaintenance 76570.964473724
scalar OsgEarthNet.uav[17] utilizationEnergyCharge 205040.23242188
scalar OsgEarthNet.uav[17] utilizationEnergyOverdrawMission 0
scalar OsgEarthNet.uav[17] utilizationEnergyOverdrawMaintenance 0
scalar OsgEarthNet.uav[17] utilizationCountMissions 45
scalar OsgEarthNet.uav[17] utilizationCountManeuversMission 473
scalar OsgEarthNet.uav[17] utilizationCountManeuversMaintenance 90
scalar OsgEarthNet.uav[17] utilizationCountChargeState 45
scalar OsgEarthNet.uav[17] utilizationCountOverdrawnAfterMission 0
scalar OsgEarthNet.uav[17] utilizationCountIdleState 45
scalar OsgEarthNet.uav[17] utilizationFail 0
scalar OsgEarthNet.uav[17] simulationTime 259200
scalar OsgEarthNet.uav[18] utilizationSecMission 32875.389287114
scalar OsgEarthNet.uav[18] utilizationSecMaintenance 14082.236779308
scalar OsgEarthNet.uav[18] utilizationSecCharge 171960.37293358
scalar OsgEarthNet.uav[18] utilizationSecIdle 40282
scalar OsgEarthNet.uav[18] utilizationEnergyMission 151487.17482048
scalar OsgEarthNet.uav[18] utilizationEnergyMaintenance 65733.094989777
scalar OsgEarthNet.uav[18] utilizationEnergyCharge 216290.99365234
scalar OsgEarthNet.uav[18] utilizationEnergyOverdrawMission 0
scalar OsgEarthNet.uav[18] utilizationEnergyOverdrawMaintenance 0
scalar OsgEarthNet.uav[18] utilizationCountMissions 47
scalar OsgEarthNet.uav[18] utilizationCountManeuversMission 545
scalar OsgEarthNet.uav[18] utilizationCountManeuversMaintenance 93
scalar OsgEarthNet.uav[18] utilizationCountChargeState 47
scalar OsgEarthNet.uav[18] utilizationCountOverdrawnAfterMission 0
scalar OsgEarthNet.uav[18] utilizationCountIdleState 47
scalar OsgEarthNet.uav[18] utilizationFail 0
scalar OsgEarthNet.uav[18] simulationTime 259200
scalar OsgEarthNet.uav[19] utilizationSecMission 30247.776755419
scalar OsgEarthNet.uav[19] utilizationSecMaintenance 16739.799478471
scalar OsgEarthNet.uav[19] utilizationSecCharge 173730.42276611
scalar OsgEarthNet.uav[19] utilizationSecIdle 38482
scalar OsgEarthNet.uav[19] utilizationEnergyMission 139833.48758698
scalar OsgEarthNet.uav[19] utilizationEnergyMaintenance 79212.055057526
scalar OsgEarthNet.uav[19] utilizationEnergyCharge 218731.51611328
scalar OsgEarthNet.uav[19] utilizationEnergyOverdrawMission 0
scalar OsgEarthNet.uav[19] utilizationEnergyOverdrawMaintenance 0
scalar OsgEarthNet.uav[19] utilizationCountMissions 47
scalar OsgEarthNet.uav[19] utilizationCountManeuversMission 492
scalar OsgEarthNet.uav[19] utilizationCountManeuversMaintenance 93
scalar OsgEarthNet.uav[19] utilizationCountChargeState 47
scalar OsgEarthNet.uav[19] utilizationCountOverdrawnAfterMission 0
scalar OsgEarthNet.uav[19] utilizationCountIdleState 47
scalar OsgEarthNet.uav[19] utilizationFail 0
scalar OsgEarthNet.uav[19] simulationTime 259200
scalar OsgEarthNet.uav[20] utilizationSecMission 30721.347612736
scalar OsgEarthNet.uav[20] utilizationSecMaintenance 17076.651387264
scalar OsgEarthNet.uav[20] utilizationSecCharge 173580
scalar OsgEarthNet.uav[20] utilizationSecIdle 37822
scalar OsgEarthNet.uav[20] utilizationEnergyMission 143043.39212769
scalar OsgEarthNet.uav[20] utilizationEnergyMaintenance 79126.661823273
scalar OsgEarthNet.uav[20] utilizationEnergyCharge 217506.36181641
scalar OsgEarthNet.uav[20] utilizationEnergyOverdrawMission 0
scalar OsgEarthNet.uav[20] utilizationEnergyOverdrawMaintenance 0
scalar OsgEarthNet.uav[20] utilizationCountMissions 47
scalar OsgEarthNet.uav[20] utilizationCountManeuversMission 509
scalar OsgEarthNet.uav[20] utilizationCountManeuversMaintenance 94
scalar OsgEarthNet.uav[20] utilizationCountChargeState 47
scalar OsgEarthNet.uav[20] utilizationCountOverdrawnAfterMission 0
scalar OsgEarthNet.uav[20] utilizationCountIdleState 48
scalar OsgEarthNet.uav[20] utilizationFail 0
scalar OsgEarthNet.uav[20] simulationTime 259200
scalar OsgEarthNet.uav[21] utilizationSecMission 29837.120655663
scalar OsgEarthNet.uav[21] utilizationSecMaintenance 16596.200798107
scalar OsgEarthNet.uav[21] utilizationSecCharge 168360.20273095
scalar OsgEarthNet.uav[21] utilizationSecIdle 44406.474815285
scalar OsgEarthNet.uav[21] utilizationEnergyMission 135654.0660553
scalar OsgEarthNet.uav[21] utilizationEnergyMaintenance 77157.133075714
scalar OsgEarthNet.uav[21] utilizationEnergyCharge 210422.83666992
scalar OsgEarthNet.uav[21] utilizationEnergyOverdrawMission 0
scalar OsgEarthNet.uav[21] utilizationEnergyOverdrawMaintenance 0
scalar OsgEarthNet.uav[21] utilizationCountMissions 47
scalar OsgEarthNet.uav[21] utilizationCountManeuversMission 480
scalar OsgEarthNet.uav[21] utilizationCountManeuversMaintenance 94
scalar OsgEarthNet.uav[21] utilizationCountChargeState 47
scalar OsgEarthNet.uav[21] utilizationCountOverdrawnAfterMission 0
scalar OsgEarthNet.uav[21] utilizationCountIdleState 47
scalar OsgEarthNet.uav[21] utilizationFail 0
scalar OsgEarthNet.uav[21] simulationTime 259200
scalar OsgEarthNet.uav[22] utilizationSecMission 30347.572926528
scalar OsgEarthNet.uav[22] utilizationSecMaintenance 14629.711398152
scalar OsgEarthNet.uav[22] utilizationSecCharge 164166.96597232
scalar OsgEarthNet.uav[22] utilizationSecIdle 50055.748703004
scalar OsgEarthNet.uav[22] utilizationEnergyMission 140012.08153534
scalar OsgEarthNet.uav[22] utilizationEnergyMaintenance 68394.353996277
scalar OsgEarthNet.uav[22] utilizationEnergyCharge 206657.64697266
scalar OsgEarthNet.uav[22] utilizationEnergyOverdrawMission 0
scalar OsgEarthNet.uav[22] utilizationEnergyOverdrawMaintenance 0
scalar OsgEarthNet.uav[22] utilizationCountMissions 45
scalar OsgEarthNet.uav[22] utilizationCountManeuversMission 493
scalar OsgEarthNet.uav[22] utilizationCountManeuversMaintenance 90
scalar OsgEarthNet.uav[22] utilizationCountChargeState 45
scalar OsgEarthNet.uav[22] utilizationCountOverdrawnAfterMission 0
scalar OsgEarthNet.uav[22] utilizationCountIdleState 45
scalar OsgEarthNet.uav[22] utilizationFail 0
scalar OsgEarthNet.uav[22] simulationTime 259200
scalar OsgEarthNet.uav[23] utilizationSecMission 28126.984213839
scalar OsgEarthNet.uav[23] utilizationSecMaintenance 15559.998783686
scalar OsgEarthNet.uav[23] utilizationSecCharge 161956.67690022
scalar OsgEarthNet.uav[23] utilizationSecIdle 53556.33910226
scalar OsgEarthNet.uav[23] utilizationEnergyMission 131201.26598358
scalar OsgEarthNet.uav[23] utilizationEnergyMaintenance 73732.748840332
scalar OsgEarthNet.uav[23] utilizationEnergyCharge 204401.60400391
scalar OsgEarthNet.uav[23] utilizationEnergyOverdrawMission 0
scalar OsgEarthNet.uav[23] utilizationEnergyOverdrawMaintenance 0
scalar OsgEarthNet.uav[23] utilizationCountMissions 44
scalar OsgEarthNet.uav[23] utilizationCountManeuversMission 455
scalar OsgEarthNet.uav[23] utilizationCountManeuversMaintenance 88
scalar OsgEarthNet.uav[23] utilizationCountChargeState 44
scalar OsgEarthNet.uav[23] utilizationCountOverdrawnAfterMission 0
scalar OsgEarthNet.uav[23] utilizationCountIdleState 44
scalar OsgEarthNet.uav[23] utilizationFail 0
scalar OsgEarthNet.uav[23] simulationTime 259200
scalar OsgEarthNet.uav[24] utilizationSecMission 30957.993230657
scalar OsgEarthNet.uav[24] utilizationSecMaintenance 16183.599949717
scalar OsgEarthNet.uav[24] utilizationSecCharge 173587.44283329
scalar OsgEarthNet.uav[24] utilizationSecIdle 38470.962986334
scalar OsgEarthNet.uav[24] utilizationEnergyMission 143991.65942383
scalar OsgEarthNet.uav[24] utilizationEnergyMaintenance 75965.531158447
scalar OsgEarthNet.uav[24] utilizationEnergyCharge 219068.00976562
scalar OsgEarthNet.uav[24] utilizationEnergyOverdrawMission 0
scalar OsgEarthNet.uav[24] utilizationEnergyOverdrawMaintenance 0
scalar OsgEarthNet.uav[24] utilizationCountMissions 47
scalar OsgEarthNet.uav[24] utilizationCountManeuversMission 502
scalar OsgEarthNet.uav[24] utilizationCountManeuversMaintenance 94
scalar OsgEarthNet.uav[24] utilizationCountChargeState 47
scalar OsgEarthNet.uav[24] utilizationCountOverdrawnAfterMission 0
scalar OsgEarthNet.uav[24] utilizationCountIdleState 47
scalar OsgEarthNet.uav[24] utilizationFail 0
scalar OsgEarthNet.uav[24] simulationTime 259200
scalar OsgEarthNet.uav[25] utilizationSecMission 29347.003215218
scalar OsgEarthNet.uav[25] utilizationSecMaintenance 17240.150872698
scalar OsgEarthNet.uav[25] utilizationSecCharge 172296.80881331
scalar OsgEarthNet.uav[25] utilizationSecIdle 40316.036098769
scalar OsgEarthNet.uav[25] utilizationEnergyMission 135579.38842773
scalar OsgEarthNet.uav[25] utilizationEnergyMaintenance 82266.816539764
scalar OsgEarthNet.uav[25] utilizationEnergyCharge 217247.86523438
scalar OsgEarthNet.uav[25] utilizationEnergyOverdrawMission 0
scalar OsgEarthNet.uav[25] utilizationEnergyOverdrawMaintenance 0
scalar OsgEarthNet.uav[25] utilizationCountMissions 47
scalar OsgEarthNet.uav[25] utilizationCountManeuversMission 478
scalar OsgEarthNet.uav[25] utilizationCountManeuversMaintenance 94
scalar OsgEarthNet.uav[25] utilizationCountChargeState 47
scalar OsgEarthNet.uav[25] utilizationCountOverdrawnAfterMission 0
scalar OsgEarthNet.uav[25] utilizationCountIdleState 47
scalar OsgEarthNet.uav[25] utilizationFail 0
scalar OsgEarthNet.uav[25] simulationTime 259200
scalar OsgEarthNet.uav[26] utilizationSecMission 27639.097036819
scalar OsgEarthNet.uav[26] utilizationSecMaintenance 13454.168848793
scalar OsgEarthNet.uav[26] utilizationSecCharge 151556.16367932
scalar OsgEarthNet.uav[26] utilizationSecIdle 66550.569435067
scalar OsgEarthNet.uav[26] utilizationEnergyMission 127055.00680542
scalar OsgEarthNet.uav[26] utilizationEnergyMaintenance 62639.949779511
scalar OsgEarthNet.uav[26] utilizationEnergyCharge 190625.34277344
scalar OsgEarthNet.uav[26] utilizationEnergyOverdrawMission 0
scalar OsgEarthNet.uav[26] utilizationEnergyOverdrawMaintenance 0
scalar OsgEarthNet.uav[26] utilizationCountMissions 41
scalar OsgEarthNet.uav[26] utilizationCountManeuversMission 449
scalar OsgEarthNet.uav[26] utilizationCountManeuversMaintenance 82
scalar OsgEarthNet.uav[26] utilizationCountChargeState 41
scalar OsgEarthNet.uav[26] utilizationCountOverdrawnAfterMission 0
scalar OsgEarthNet.uav[26] utilizationCountIdleState 41
scalar OsgEarthNet.uav[26] utilizationFail 0
scalar OsgEarthNet.uav[26] simulationTime 259200
scalar OsgEarthNet.uav[27] utilizationSecMission 29386.473941704
scalar OsgEarthNet.uav[27] utilizationSecMaintenance 15486.459073379
scalar OsgEarthNet.uav[27] utilizationSecCharge 166260
scalar OsgEarthNet.uav[27] utilizationSecIdle 48067.065984918
scalar OsgEarthNet.uav[27] utilizationEnergyMission 135209.66881561
scalar OsgEarthNet.uav[27] utilizationEnergyMaintenance 73268.791927338
scalar OsgEarthNet.uav[27] utilizationEnergyCharge 208234.23730469
scalar OsgEarthNet.uav[27] utilizationEnergyOverdrawMission 0
scalar OsgEarthNet.uav[27] utilizationEnergyOverdrawMaintenance 0
scalar OsgEarthNet.uav[27] utilizationCountMissions 45
scalar OsgEarthNet.uav[27] utilizationCountManeuversMission 486
scalar OsgEarthNet.uav[27] utilizationCountManeuversMaintenance 90
scalar OsgEarthNet.uav[27] utilizationCountChargeState 45
scalar OsgEarthNet.uav[27] utilizationCountOverdrawnAfterMission 0
scalar OsgEarthNet.uav[27] utilizationCountIdleState 46
scalar OsgEarthNet.uav[27] utilizationFail 0
scalar OsgEarthNet.uav[27] simulationTime 259200
scalar OsgEarthNet.uav[28] utilizationSecMission 29944.371134208
scalar OsgEarthNet.uav[28] utilizationSecMaintenance 16509.485786061
scalar OsgEarthNet.uav[28] utilizationSecCharge 171010
scalar OsgEarthNet.uav[28] utilizationSecIdle 41736.142079732
scalar OsgEarthNet.uav[28] utilizationEnergyMission 137240.09897995
scalar OsgEarthNet.uav[28] utilizationEnergyMaintenance 76534.329246521
scalar OsgEarthNet.uav[28] utilizationEnergyCharge 214609.13134766
scalar OsgEarthNet.uav[28] utilizationEnergyOverdrawMission 0
scalar OsgEarthNet.uav[28] utilizationEnergyOverdrawMaintenance 0
scalar OsgEarthNet.uav[28] utilizationCountMissions 46
scalar OsgEarthNet.uav[28] utilizationCountManeuversMission 495
scalar OsgEarthNet.uav[28] utilizationCountManeuversMaintenance 92
scalar OsgEarthNet.uav[28] utilizationCountChargeState 46
scalar OsgEarthNet.uav[28] utilizationCountOverdrawnAfterMission 0
scalar OsgEarthNet.uav[28] utilizationCountIdleState 47
scalar OsgEarthNet.uav[28] utilizationFail 0
scalar OsgEarthNet.uav[28] simulationTime 259200
scalar OsgEarthNet.uav[29] utilizationSecMission 1898.0855128075
scalar OsgEarthNet.uav[29] utilizationSecMaintenance 985.76359987695
scalar OsgEarthNet.uav[29] utilizationSecCharge 10790
scalar OsgEarthNet.uav[29] utilizationSecIdle 245526.14988732
scalar OsgEarthNet.uav[29] utilizationEnergyMission 8835.9314498901
scalar OsgEarthNet.uav[29] utilizationEnergyMaintenance 4564.0447120667
scalar OsgEarthNet.uav[29] utilizationEnergyCharge 13399.984375
scalar OsgEarthNet.uav[29] utilizationEnergyOverdrawMission 0
scalar OsgEarthNet.uav[29] utilizationEnergyOverdrawMaintenance 0
scalar OsgEarthNet.uav[29] utilizationCountMissions 3
scalar OsgEarthNet.uav[29] utilizationCountManeuversMission 32
scalar OsgEarthNet.uav[29] utilizationCountManeuversMaintenance 6
scalar OsgEarthNet.uav[29] utilizationCountChargeState 3
scalar OsgEarthNet.uav[29] utilizationCountOverdrawnAfterMission 0
scalar OsgEarthNet.uav[29] utilizationCountIdleState 4
scalar OsgEarthNet.uav[29] utilizationFail 0
scalar OsgEarthNet.uav[29] simulationTime 259200
scalar OsgEarthNet.uav[30] utilizationSecMission 8084.7119858577
scalar OsgEarthNet.uav[30] utilizationSecMaintenance 3803.4518158389
scalar OsgEarthNet.uav[30] utilizationSecCharge 44300
scalar OsgEarthNet.uav[30] utilizationSecIdle 203011.8351983
scalar OsgEarthNet.uav[30] utilizationEnergyMission 37117.972808838
scalar OsgEarthNet.uav[30] utilizationEnergyMaintenance 17962.938827515
scalar OsgEarthNet.uav[30] utilizationEnergyCharge 55313.446777344
scalar OsgEarthNet.uav[30] utilizationEnergyOverdrawMission 0
scalar OsgEarthNet.uav[30] utilizationEnergyOverdrawMaintenance 0
scalar OsgEarthNet.uav[30] utilizationCountMissions 12
scalar OsgEarthNet.uav[30] utilizationCountManeuversMission 131
scalar OsgEarthNet.uav[30] utilizationCountManeuversMaintenance 24
scalar OsgEarthNet.uav[30] utilizationCountChargeState 12
scalar OsgEarthNet.uav[30] utilizationCountOverdrawnAfterMission 0
scalar OsgEarthNet.uav[30] utilizationCountIdleState 13
scalar OsgEarthNet.uav[30] utilizationFail 0
scalar OsgEarthNet.uav[30] simulationTime 259200
scalar OsgEarthNet.uav[31] utilizationSecMission 30375.826864407
scalar OsgEarthNet.uav[31] utilizationSecMaintenance 15586.392875406
scalar OsgEarthNet.uav[31] utilizationSecCharge 167672.74232339
scalar OsgEarthNet.uav[31] utilizationSecIdle 45565.036936796
scalar OsgEarthNet.uav[31] utilizationEnergyMission 139533.12071991
scalar OsgEarthNet.uav[31] utilizationEnergyMaintenance 72671.30273056
scalar OsgEarthNet.uav[31] utilizationEnergyCharge 210684.10449219
scalar OsgEarthNet.uav[31] utilizationEnergyOverdrawMission 0
scalar OsgEarthNet.uav[31] utilizationEnergyOverdrawMaintenance 0
scalar OsgEarthNet.uav[31] utilizationCountMissions 46
scalar OsgEarthNet.uav[31] utilizationCountManeuversMission 497
scalar OsgEarthNet.uav[31] utilizationCountManeuversMaintenance 92
scalar OsgEarthNet.uav[31] utilizationCountChargeState 46
scalar OsgEarthNet.uav[31] utilizationCountOverdrawnAfterMission 0
scalar OsgEarthNet.uav[31] utilizationCountIdleState 46
scalar OsgEarthNet.uav[31] utilizationFail 0
scalar OsgEarthNet.uav[31] simulationTime 259200
scalar OsgEarthNet.uav[32] utilizationSecMission 27883.364083524
scalar OsgEarthNet.uav[32] utilizationSecMaintenance 15037.786756682
scalar OsgEarthNet.uav[32] utilizationSecCharge 156210
scalar OsgEarthNet.uav[32] utilizationSecIdle 60068.848159794
scalar OsgEarthNet.uav[32] utilizationEnergyMission 129228.35501099
scalar OsgEarthNet.uav[32] utilizationEnergyMaintenance 70735.618379326
scalar OsgEarthNet.uav[32] utilizationEnergyCharge 196487.91113281
scalar OsgEarthNet.uav[32] utilizationEnergyOverdrawMission 0
scalar OsgEarthNet.uav[32] utilizationEnergyOverdrawMaintenance 0
scalar OsgEarthNet.uav[32] utilizationCountMissions 43
scalar OsgEarthNet.uav[32] utilizationCountManeuversMission 466
scalar OsgEarthNet.uav[32] utilizationCountManeuversMaintenance 86
scalar OsgEarthNet.uav[32] utilizationCountChargeState 42
scalar OsgEarthNet.uav[32] utilizationCountOverdrawnAfterMission 0
scalar OsgEarthNet.uav[32] utilizationCountIdleState 43
scalar OsgEarthNet.uav[32] utilizationFail 0
scalar OsgEarthNet.uav[32] simulationTime 259200
scalar OsgEarthNet.uav[33] utilizationSecMission 4256.5393443337
scalar OsgEarthNet.uav[33] utilizationSecMaintenance 1723.7713935813
scalar OsgEarthNet.uav[33] utilizationSecCharge 21660
scalar OsgEarthNet.uav[33] utilizationSecIdle 231559.68826208
scalar OsgEarthNet.uav[33] utilizationEnergyMission 19577.685539246
scalar OsgEarthNet.uav[33] utilizationEnergyMaintenance 7808.4966812134
scalar OsgEarthNet.uav[33] utilizationEnergyCharge 26944.475585938
scalar OsgEarthNet.uav[33] utilizationEnergyOverdrawMission 0
scalar OsgEarthNet.uav[33] utilizationEnergyOverdrawMaintenance 0
scalar OsgEarthNet.uav[33] utilizationCountMissions 6
scalar OsgEarthNet.uav[33] utilizationCountManeuversMission 66
scalar OsgEarthNet.uav[33] utilizationCountManeuversMaintenance 12
scalar OsgEarthNet.uav[33] utilizationCountChargeState 6
scalar OsgEarthNet.uav[33] utilizationCountOverdrawnAfterMission 0
scalar OsgEarthNet.uav[33] utilizationCountIdleState 7
scalar OsgEarthNet.uav[33] utilizationFail 0
scalar OsgEarthNet.uav[33] simulationTime 259200
scalar OsgEarthNet.uav[34] utilizationSecMission 30627.477596753
scalar OsgEarthNet.uav[34] utilizationSecMaintenance 16705.114502467
scalar OsgEarthNet.uav[34] utilizationSecCharge 171140
scalar OsgEarthNet.uav[34] utilizationSecIdle 40727.406900779
scalar OsgEarthNet.uav[34] utilizationEnergyMission 141270.12728882
scalar OsgEarthNet.uav[34] utilizationEnergyMaintenance 77741.970379449
scalar OsgEarthNet.uav[34] utilizationEnergyCharge 215540.76269531
scalar OsgEarthNet.uav[34] utilizationEnergyOverdrawMission 0
scalar OsgEarthNet.uav[34] utilizationEnergyOverdrawMaintenance 0
scalar OsgEarthNet.uav[34] utilizationCountMissions 47
scalar OsgEarthNet.uav[34] utilizationCountManeuversMission 506
scalar OsgEarthNet.uav[34] utilizationCountManeuversMaintenance 94
scalar OsgEarthNet.uav[34] utilizationCountChargeState 46
scalar OsgEarthNet.uav[34] utilizationCountOverdrawnAfterMission 0
scalar OsgEarthNet.uav[34] utilizationCountIdleState 46
scalar OsgEarthNet.uav[34] utilizationFail 0
scalar OsgEarthNet.uav[34] simulationTime 259200
scalar OsgEarthNet.uav[35] utilizationSecMission 31655.364289123
scalar OsgEarthNet.uav[35] utilizationSecMaintenance 14863.210352701
scalar OsgEarthNet.uav[35] utilizationSecCharge 168605.18252255
scalar OsgEarthNet.uav[35] utilizationSecIdle 44076.241835621
scalar OsgEarthNet.uav[35] utilizationEnergyMission 145159.35881042
scalar OsgEarthNet.uav[35] utilizationEnergyMaintenance 69564.035007477
scalar OsgEarthNet.uav[35] utilizationEnergyCharge 212503.53344727
scalar OsgEarthNet.uav[35] utilizationEnergyOverdrawMission 0
scalar OsgEarthNet.uav[35] utilizationEnergyOverdrawMaintenance 0
scalar OsgEarthNet.uav[35] utilizationCountMissions 46
scalar OsgEarthNet.uav[35] utilizationCountManeuversMission 516
scalar OsgEarthNet.uav[35] utilizationCountManeuversMaintenance 92
scalar OsgEarthNet.uav[35] utilizationCountChargeState 46
scalar OsgEarthNet.uav[35] utilizationCountOverdrawnAfterMission 0
scalar OsgEarthNet.uav[35] utilizationCountIdleState 46
scalar OsgEarthNet.uav[35] utilizationFail 0
scalar OsgEarthNet.uav[35] simulationTime 259200
scalar OsgEarthNet.uav[36] utilizationSecMission 32356.623340368
scalar OsgEarthNet.uav[36] utilizationSecMaintenance 14921.078488545
scalar OsgEarthNet.uav[36] utilizationSecCharge 170079.04484951
scalar OsgEarthNet.uav[36] utilizationSecIdle 41843.252321579
scalar OsgEarthNet.uav[36] utilizationEnergyMission 147574.00273132
scalar OsgEarthNet.uav[36] utilizationEnergyMaintenance 70172.098651886
scalar OsgEarthNet.uav[36] utilizationEnergyCharge 213090.93167114
scalar OsgEarthNet.uav[36] utilizationEnergyOverdrawMission 0
scalar OsgEarthNet.uav[36] utilizationEnergyOverdrawMaintenance 0
scalar OsgEarthNet.uav[36] utilizationCountMissions 47
scalar OsgEarthNet.uav[36] utilizationCountManeuversMission 520
scalar OsgEarthNet.uav[36] utilizationCountManeuversMaintenance 94
scalar OsgEarthNet.uav[36] utilizationCountChargeState 47
scalar OsgEarthNet.uav[36] utilizationCountOverdrawnAfterMission 0
scalar OsgEarthNet.uav[36] utilizationCountIdleState 47
scalar OsgEarthNet.uav[36] utilizationFail 0
scalar OsgEarthNet.uav[36] simulationTime 259200
scalar OsgEarthNet.uav[37] utilizationSecMission 28651.997557922
scalar OsgEarthNet.uav[37] utilizationSecMaintenance 17373.913308485
scalar OsgEarthNet.uav[37] utilizationSecCharge 170060
scalar OsgEarthNet.uav[37] utilizationSecIdle 43114.088133594
scalar OsgEarthNet.uav[37] utilizationEnergyMission 132082.95218658
scalar OsgEarthNet.uav[37] utilizationEnergyMaintenance 81223.445259094
scalar OsgEarthNet.uav[37] utilizationEnergyCharge 213458.2956543
scalar OsgEarthNet.uav[37] utilizationEnergyOverdrawMission 0
scalar OsgEarthNet.uav[37] utilizationEnergyOverdrawMaintenance 0
scalar OsgEarthNet.uav[37] utilizationCountMissions 46
scalar OsgEarthNet.uav[37] utilizationCountManeuversMission 463
scalar OsgEarthNet.uav[37] utilizationCountManeuversMaintenance 92
scalar OsgEarthNet.uav[37] utilizationCountChargeState 46
scalar OsgEarthNet.uav[37] utilizationCountOverdrawnAfterMission 0
scalar OsgEarthNet.uav[37] utilizationCountIdleState 46
scalar OsgEarthNet.uav[37] utilizationFail 0
scalar OsgEarthNet.uav[37] simulationTime 259200
scalar OsgEarthNet.uav[38] utilizationSecMission 32331.542193585
scalar OsgEarthNet.uav[38] utilizationSecMaintenance 13958.224665997
scalar OsgEarthNet.uav[38] utilizationSecCharge 171111.33576527
scalar OsgEarthNet.uav[38] utilizationSecIdle 41798.896375144
scalar OsgEarthNet.uav[38] utilizationEnergyMission 148944.81476593
scalar OsgEarthNet.uav[38] utilizationEnergyMaintenance 65462.496879578
scalar OsgEarthNet.uav[38] utilizationEnergyCharge 215223.98388672
scalar OsgEarthNet.uav[38] utilizationEnergyOverdrawMission 0
scalar OsgEarthNet.uav[38] utilizationEnergyOverdrawMaintenance 0
scalar OsgEarthNet.uav[38] utilizationCountMissions 46
scalar OsgEarthNet.uav[38] utilizationCountManeuversMission 533
scalar OsgEarthNet.uav[38] utilizationCountManeuversMaintenance 92
scalar OsgEarthNet.uav[38] utilizationCountChargeState 46
scalar OsgEarthNet.uav[38] utilizationCountOverdrawnAfterMission 0
scalar OsgEarthNet.uav[38] utilizationCountIdleState 46
scalar OsgEarthNet.uav[38] utilizationFail 0
scalar OsgEarthNet.uav[38] simulationTime 259200
scalar OsgEarthNet.uav[39] utilizationSecMission 28970.75837886
scalar OsgEarthNet.uav[39] utilizationSecMaintenance 18133.426188426
scalar OsgEarthNet.uav[39] utilizationSecCharge 174160
scalar OsgEarthNet.uav[39] utilizationSecIdle 37935.814432714
scalar OsgEarthNet.uav[39] utilizationEnergyMission 135182.18227005
scalar OsgEarthNet.uav[39] utilizationEnergyMaintenance 84049.065876007
scalar OsgEarthNet.uav[39] utilizationEnergyCharge 218737.44482422
scalar OsgEarthNet.uav[39] utilizationEnergyOverdrawMission 0
scalar OsgEarthNet.uav[39] utilizationEnergyOverdrawMaintenance 0
scalar OsgEarthNet.uav[39] utilizationCountMissions 47
scalar OsgEarthNet.uav[39] utilizationCountManeuversMission 485
scalar OsgEarthNet.uav[39] utilizationCountManeuversMaintenance 94
scalar OsgEarthNet.uav[39] utilizationCountChargeState 47
scalar OsgEarthNet.uav[39] utilizationCountOverdrawnAfterMission 0
scalar OsgEarthNet.uav[39] utilizationCountIdleState 47
scalar OsgEarthNet.uav[39] utilizationFail 0
scalar OsgEarthNet.uav[39] simulationTime 259200
scalar OsgEarthNet.uav[40] utilizationSecMission 23737.120169044
scalar OsgEarthNet.uav[40] utilizationSecMaintenance 14057.95116756
scalar OsgEarthNet.uav[40] utilizationSecCharge 137400
scalar OsgEarthNet.uav[40] utilizationSecIdle 84004.927663396
scalar OsgEarthNet.uav[40] utilizationEnergyMission 109702.48703812
scalar OsgEarthNet.uav[40] utilizationEnergyMaintenance 64988.043994904
scalar OsgEarthNet.uav[40] utilizationEnergyCharge 172711.75244141
scalar OsgEarthNet.uav[40] utilizationEnergyOverdrawMission 0
scalar OsgEarthNet.uav[40] utilizationEnergyOverdrawMaintenance 0
scalar OsgEarthNet.uav[40] utilizationCountMissions 37
scalar OsgEarthNet.uav[40] utilizationCountManeuversMission 391
scalar OsgEarthNet.uav[40] utilizationCountManeuversMaintenance 75
scalar OsgEarthNet.uav[40] utilizationCountChargeState 37
scalar OsgEarthNet.uav[40] utilizationCountOverdrawnAfterMission 0
scalar OsgEarthNet.uav[40] utilizationCountIdleState 38
scalar OsgEarthNet.uav[40] utilizationFail 0
scalar OsgEarthNet.uav[40] simulationTime 259200
scalar OsgEarthNet.uav[41] utilizationSecMission 30620.839814313
scalar OsgEarthNet.uav[41] utilizationSecMaintenance 16855.475324683
scalar OsgEarthNet.uav[41] utilizationSecCharge 175403.67592293
scalar OsgEarthNet.uav[41] utilizationSecIdle 36320.007938076
scalar OsgEarthNet.uav[41] utilizationEnergyMission 142196.24913406
scalar OsgEarthNet.uav[41] utilizationEnergyMaintenance 80227.396114349
scalar OsgEarthNet.uav[41] utilizationEnergyCharge 220524.34106445
scalar OsgEarthNet.uav[41] utilizationEnergyOverdrawMission 0
scalar OsgEarthNet.uav[41] utilizationEnergyOverdrawMaintenance 0
scalar OsgEarthNet.uav[41] utilizationCountMissions 48
scalar OsgEarthNet.uav[41] utilizationCountManeuversMission 503
scalar OsgEarthNet.uav[41] utilizationCountManeuversMaintenance 96
scalar OsgEarthNet.uav[41] utilizationCountChargeState 48
scalar OsgEarthNet.uav[41] utilizationCountOverdrawnAfterMission 0
scalar OsgEarthNet.uav[41] utilizationCountIdleState 48
scalar OsgEarthNet.uav[41] utilizationFail 0
scalar OsgEarthNet.uav[41] simulationTime 259200
scalar OsgEarthNet.uav[42] utilizationSecMission 29050.570868643
scalar OsgEarthNet.uav[42] utilizationSecMaintenance 16719.702413131
scalar OsgEarthNet.uav[42] utilizationSecCharge 166843.27814575
scalar OsgEarthNet.uav[42] utilizationSecIdle 46586.447572472
scalar OsgEarthNet.uav[42] utilizationEnergyMission 135576.30581665
scalar OsgEarthNet.uav[42] utilizationEnergyMaintenance 77760.351325989
scalar OsgEarthNet.uav[42] utilizationEnergyCharge 209412.70446777
scalar OsgEarthNet.uav[42] utilizationEnergyOverdrawMission 0
scalar OsgEarthNet.uav[42] utilizationEnergyOverdrawMaintenance 0
scalar OsgEarthNet.uav[42] utilizationCountMissions 46
scalar OsgEarthNet.uav[42] utilizationCountManeuversMission 471
scalar OsgEarthNet.uav[42] utilizationCountManeuversMaintenance 92
scalar OsgEarthNet.uav[42] utilizationCountChargeState 46
scalar OsgEarthNet.uav[42] utilizationCountOverdrawnAfterMission 0
scalar OsgEarthNet.uav[42] utilizationCountIdleState 46
scalar OsgEarthNet.uav[42] utilizationFail 0
scalar OsgEarthNet.uav[42] simulationTime 259200
scalar OsgEarthNet.uav[43] utilizationSecMission 29426.094783323
scalar OsgEarthNet.uav[43] utilizationSecMaintenance 15339.393235478
scalar OsgEarthNet.uav[43] utilizationSecCharge 160862.08792637
scalar OsgEarthNet.uav[43] utilizationSecIdle 53572.423054826
scalar OsgEarthNet.uav[43] utilizationEnergyMission 136414.13031769
scalar OsgEarthNet.uav[43] utilizationEnergyMaintenance 70915.751598358
scalar OsgEarthNet.uav[43] utilizationEnergyCharge 202607.12927246
scalar OsgEarthNet.uav[43] utilizationEnergyOverdrawMission 0
scalar OsgEarthNet.uav[43] utilizationEnergyOverdrawMaintenance 0
scalar OsgEarthNet.uav[43] utilizationCountMissions 44
scalar OsgEarthNet.uav[43] utilizationCountManeuversMission 488
scalar OsgEarthNet.uav[43] utilizationCountManeuversMaintenance 88
scalar OsgEarthNet.uav[43] utilizationCountChargeState 44
scalar OsgEarthNet.uav[43] utilizationCountOverdrawnAfterMission 0
scalar OsgEarthNet.uav[43] utilizationCountIdleState 44
scalar OsgEarthNet.uav[43] utilizationFail 0
scalar OsgEarthNet.uav[43] simulationTime 259200
scalar OsgEarthNet.uav[44] utilizationSecMission 32279.694590899
scalar OsgEarthNet.uav[44] utilizationSecMaintenance 15438.304409101
scalar OsgEarthNet.uav[44] utilizationSecCharge 175470
scalar OsgEarthNet.uav[44] utilizationSecIdle 36012
scalar OsgEarthNet.uav[44] utilizationEnergyMission 150651.71817774
scalar OsgEarthNet.uav[44] utilizationEnergyMaintenance 72237.19386673
scalar OsgEarthNet.uav[44] utilizationEnergyCharge 220778.83935547
scalar OsgEarthNet.uav[44] utilizationEnergyOverdrawMission 0
scalar OsgEarthNet.uav[44] utilizationEnergyOverdrawMaintenance 0
scalar OsgEarthNet.uav[44] utilizationCountMissions 47
scalar OsgEarthNet.uav[44] utilizationCountManeuversMission 521
scalar OsgEarthNet.uav[44] utilizationCountManeuversMaintenance 94
scalar OsgEarthNet.uav[44] utilizationCountChargeState 47
scalar OsgEarthNet.uav[44] utilizationCountOverdrawnAfterMission 0
scalar OsgEarthNet.uav[44] utilizationCountIdleState 47
scalar OsgEarthNet.uav[44] utilizationFail 0
scalar OsgEarthNet.uav[44] simulationTime 259200
scalar OsgEarthNet.uav[45] utilizationSecMission 30662.399272457
scalar OsgEarthNet.uav[45] utilizationSecMaintenance 16639.92623993
scalar OsgEarthNet.uav[45] utilizationSecCharge 173355.67348761
scalar OsgEarthNet.uav[45] utilizationSecIdle 38542
scalar OsgEarthNet.uav[45] utilizationEnergyMission 142287.60701514
scalar OsgEarthNet.uav[45] utilizationEnergyMaintenance 76866.811210632
scalar OsgEarthNet.uav[45] utilizationEnergyCharge 218438.49804688
scalar OsgEarthNet.uav[45] utilizationEnergyOverdrawMission 0
scalar OsgEarthNet.uav[45] utilizationEnergyOverdrawMaintenance 0
scalar OsgEarthNet.uav[45] utilizationCountMissions 47
scalar OsgEarthNet.uav[45] utilizationCountManeuversMission 502
scalar OsgEarthNet.uav[45] utilizationCountManeuversMaintenance 93
scalar OsgEarthNet.uav[45] utilizationCountChargeState 47
scalar OsgEarthNet.uav[45] utilizationCountOverdrawnAfterMission 0
scalar OsgEarthNet.uav[45] utilizationCountIdleState 47
scalar OsgEarthNet.uav[45] utilizationFail 0
scalar OsgEarthNet.uav[45] simulationTime 259200
scalar OsgEarthNet.uav[46] utilizationSecMission 28437.37964056
scalar OsgEarthNet.uav[46] utilizationSecMaintenance 16543.907885056
scalar OsgEarthNet.uav[46] utilizationSecCharge 166933.75897125
scalar OsgEarthNet.uav[46] utilizationSecIdle 47284.952503134
scalar OsgEarthNet.uav[46] utilizationEnergyMission 132674.07910919
scalar OsgEarthNet.uav[46] utilizationEnergyMaintenance 77638.386299133
scalar OsgEarthNet.uav[46] utilizationEnergyCharge 210127.81884766
scalar OsgEarthNet.uav[46] utilizationEnergyOverdrawMission 0
scalar OsgEarthNet.uav[46] utilizationEnergyOverdrawMaintenance 0
scalar OsgEarthNet.uav[46] utilizationCountMissions 45
scalar OsgEarthNet.uav[46] utilizationCountManeuversMission 450
scalar OsgEarthNet.uav[46] utilizationCountManeuversMaintenance 90
scalar OsgEarthNet.uav[46] utilizationCountChargeState 45
scalar OsgEarthNet.uav[46] utilizationCountOverdrawnAfterMission 0
scalar OsgEarthNet.uav[46] utilizationCountIdleState 44
scalar OsgEarthNet.uav[46] utilizationFail 0
scalar OsgEarthNet.uav[46] simulationTime 259200
scalar OsgEarthNet.uav[47] utilizationSecMission 27934.11432462
scalar OsgEarthNet.uav[47] utilizationSecMaintenance 16992.457067527
scalar OsgEarthNet.uav[47] utilizationSecCharge 162517.69250645
scalar OsgEarthNet.uav[47] utilizationSecIdle 51755.735101404
scalar OsgEarthNet.uav[47] utilizationEnergyMission 128806.81169128
scalar OsgEarthNet.uav[47] utilizationEnergyMaintenance 79489.648845673
scalar OsgEarthNet.uav[47] utilizationEnergyCharge 204093.46380615
scalar OsgEarthNet.uav[47] utilizationEnergyOverdrawMission 0
scalar OsgEarthNet.uav[47] utilizationEnergyOverdrawMaintenance 0
scalar OsgEarthNet.uav[47] utilizationCountMissions 45
scalar OsgEarthNet.uav[47] utilizationCountManeuversMission 451
scalar OsgEarthNet.uav[47] utilizationCountManeuversMaintenance 90
scalar OsgEarthNet.uav[47] utilizationCountChargeState 45
scalar OsgEarthNet.uav[47] utilizationCountOverdrawnAfterMission 0
scalar OsgEarthNet.uav[47] utilizationCountIdleState 42
scalar OsgEarthNet.uav[47] utilizationFail 0
scalar OsgEarthNet.uav[47] simulationTime 259200
scalar OsgEarthNet.uav[48] utilizationSecMission 28439.323993192
scalar OsgEarthNet.uav[48] utilizationSecMaintenance 17795.34946884
scalar OsgEarthNet.uav[48] utilizationSecCharge 168123.87257603
scalar OsgEarthNet.uav[48] utilizationSecIdle 44841.452961934
scalar OsgEarthNet.uav[48] utilizationEnergyMission 132305.3061676
scalar OsgEarthNet.uav[48] utilizationEnergyMaintenance 82678.964740753
scalar OsgEarthNet.uav[48] utilizationEnergyCharge 212148.27001953
scalar OsgEarthNet.uav[48] utilizationEnergyOverdrawMission 0
scalar OsgEarthNet.uav[48] utilizationEnergyOverdrawMaintenance 0
scalar OsgEarthNet.uav[48] utilizationCountMissions 46
scalar OsgEarthNet.uav[48] utilizationCountManeuversMission 471
scalar OsgEarthNet.uav[48] utilizationCountManeuversMaintenance 92
scalar OsgEarthNet.uav[48] utilizationCountChargeState 46
scalar OsgEarthNet.uav[48] utilizationCountOverdrawnAfterMission 0
scalar OsgEarthNet.uav[48] utilizationCountIdleState 44
scalar OsgEarthNet.uav[48] utilizationFail 0
scalar OsgEarthNet.uav[48] simulationTime 259200
scalar OsgEarthNet.uav[49] utilizationSecMission 26396.689564208
scalar OsgEarthNet.uav[49] utilizationSecMaintenance 18163.495314299
scalar OsgEarthNet.uav[49] utilizationSecCharge 163790
scalar OsgEarthNet.uav[49] utilizationSecIdle 50849.814121493
scalar OsgEarthNet.uav[49] utilizationEnergyMission 122546.89800262
scalar OsgEarthNet.uav[49] utilizationEnergyMaintenance 84621.629884181
scalar OsgEarthNet.uav[49] utilizationEnergyCharge 206516.61962891
scalar OsgEarthNet.uav[49] utilizationEnergyOverdrawMission 0
scalar OsgEarthNet.uav[49] utilizationEnergyOverdrawMaintenance 0
scalar OsgEarthNet.uav[49] utilizationCountMissions 44
scalar OsgEarthNet.uav[49] utilizationCountManeuversMission 432
scalar OsgEarthNet.uav[49] utilizationCountManeuversMaintenance 89
scalar OsgEarthNet.uav[49] utilizationCountChargeState 44
scalar OsgEarthNet.uav[49] utilizationCountOverdrawnAfterMission 0
scalar OsgEarthNet.uav[49] utilizationCountIdleState 41
scalar OsgEarthNet.uav[49] utilizationFail 0
scalar OsgEarthNet.uav[49] simulationTime 259200
scalar OsgEarthNet.cs[0] usedPower 583939.68808779
scalar OsgEarthNet.cs[0] chargedPower 583939.68808779
scalar OsgEarthNet.cs[0] chargedMobileNodes 120
scalar OsgEarthNet.cs[0] reservations 127
scalar OsgEarthNet.cs[1] usedPower 1172775.5427376
scalar OsgEarthNet.cs[1] chargedPower 1172775.5427376
scalar OsgEarthNet.cs[1] chargedMobileNodes 248
scalar OsgEarthNet.cs[1] reservations 255
scalar OsgEarthNet.cs[2] usedPower 2975244.2524666
scalar OsgEarthNet.cs[2] chargedPower 2975244.2524666
scalar OsgEarthNet.cs[2] chargedMobileNodes 630
scalar OsgEarthNet.cs[2] reservations 641
scalar OsgEarthNet.cs[3] usedPower 630649.03480963
scalar OsgEarthNet.cs[3] chargedPower 630649.03480963
scalar OsgEarthNet.cs[3] chargedMobileNodes 134
scalar OsgEarthNet.cs[3] reservations 138
scalar OsgEarthNet.cs[4] usedPower 742019.67361202
scalar OsgEarthNet.cs[4] chargedPower 742019.67361202
scalar OsgEarthNet.cs[4] chargedMobileNodes 160
scalar OsgEarthNet.cs[4] reservations 162
scalar OsgEarthNet.cs[5] usedPower 543784.60888081
scalar OsgEarthNet.cs[5] chargedPower 543784.60888081
scalar OsgEarthNet.cs[5] chargedMobileNodes 112
scalar OsgEarthNet.cs[5] reservations 116
scalar OsgEarthNet.cs[6] usedPower 2459114.768367
scalar OsgEarthNet.cs[6] chargedPower 2459114.768367
scalar OsgEarthNet.cs[6] chargedMobileNodes 525
scalar OsgEarthNet.cs[6] reservations 534

